Program Version,EnergyPlus, Version 22.1.0-ed759b17ee, YMD=2022.11.28 22:36
! <Version>, Version ID
 Version, 22.1
! <Timesteps per Hour>, #TimeSteps, Minutes per TimeStep {minutes}
 Timesteps per Hour,  6, 10
! <System Convergence Limits>, Minimum System TimeStep {minutes}, Max HVAC Iterations, Minimum Plant Iterations, Maximum Plant Iterations
 System Convergence Limits, 1, 20, 2, 8
! <Simulation Control>, Do Zone Sizing, Do System Sizing, Do Plant Sizing, Do Design Days, Do Weather Simulation, Do HVAC Sizing Simulation
 Simulation Control, Yes, Yes, Yes, Yes, No, Yes
! <Performance Precision Tradeoffs>, Use Coil Direct Simulation, Zone Radiant Exchange Algorithm, Override Mode, Number of Timestep In Hour, Force Euler Method, Minimum Number of Warmup Days, Force Suppress All Begin Environment Resets, Minimum System Timestep, MaxZoneTempDiff, MaxAllowedDelTemp
 Performance Precision Tradeoffs, No, ScriptF, Normal, 6, No, 1, No, 1.0, 0.300, 2.0000E-003
! <Output Reporting Tolerances>, Tolerance for Time Heating Setpoint Not Met, Tolerance for Zone Cooling Setpoint Not Met Time
 Output Reporting Tolerances, 0.200, 0.200, 
! <Site:GroundTemperature:BuildingSurface>,Jan{C},Feb{C},Mar{C},Apr{C},May{C},Jun{C},Jul{C},Aug{C},Sep{C},Oct{C},Nov{C},Dec{C}
 Site:GroundTemperature:BuildingSurface,  18.00,  18.00,  18.00,  18.00,  18.00,  18.00,  18.00,  18.00,  18.00,  18.00,  18.00,  18.00
! <Site:GroundTemperature:FCfactorMethod>,Jan{C},Feb{C},Mar{C},Apr{C},May{C},Jun{C},Jul{C},Aug{C},Sep{C},Oct{C},Nov{C},Dec{C}
 Site:GroundTemperature:FCfactorMethod,  18.80,  14.30,  13.60,  13.20,  13.30,  12.60,  15.30,  15.60,  17.70,  19.40,  19.70,  18.50
! <Site:GroundTemperature:Shallow>,Jan{C},Feb{C},Mar{C},Apr{C},May{C},Jun{C},Jul{C},Aug{C},Sep{C},Oct{C},Nov{C},Dec{C}
 Site:GroundTemperature:Shallow,  13.00,  13.00,  13.00,  13.00,  13.00,  13.00,  13.00,  13.00,  13.00,  13.00,  13.00,  13.00
! <Site:GroundTemperature:Deep>,Jan{C},Feb{C},Mar{C},Apr{C},May{C},Jun{C},Jul{C},Aug{C},Sep{C},Oct{C},Nov{C},Dec{C}
 Site:GroundTemperature:Deep,  16.00,  16.00,  16.00,  16.00,  16.00,  16.00,  16.00,  16.00,  16.00,  16.00,  16.00,  16.00
! <Site:GroundReflectance>,Jan{dimensionless},Feb{dimensionless},Mar{dimensionless},Apr{dimensionless},May{dimensionless},Jun{dimensionless},Jul{dimensionless},Aug{dimensionless},Sep{dimensionless},Oct{dimensionless},Nov{dimensionless},Dec{dimensionless}
 Site:GroundReflectance,  0.20,  0.20,  0.20,  0.20,  0.20,  0.20,  0.20,  0.20,  0.20,  0.20,  0.20,  0.20
! <Site:GroundReflectance:SnowModifier>, Normal, Daylighting {dimensionless}
 Site:GroundReflectance:SnowModifier,   1.000,   1.000
! <Site:GroundReflectance:Snow>,Jan{dimensionless},Feb{dimensionless},Mar{dimensionless},Apr{dimensionless},May{dimensionless},Jun{dimensionless},Jul{dimensionless},Aug{dimensionless},Sep{dimensionless},Oct{dimensionless},Nov{dimensionless},Dec{dimensionless}
 Site:GroundReflectance:Snow,  0.20,  0.20,  0.20,  0.20,  0.20,  0.20,  0.20,  0.20,  0.20,  0.20,  0.20,  0.20
! <Site:GroundReflectance:Snow:Daylighting>,Jan{dimensionless},Feb{dimensionless},Mar{dimensionless},Apr{dimensionless},May{dimensionless},Jun{dimensionless},Jul{dimensionless},Aug{dimensionless},Sep{dimensionless},Oct{dimensionless},Nov{dimensionless},Dec{dimensionless}
 Site:GroundReflectance:Snow:Daylighting,  0.20,  0.20,  0.20,  0.20,  0.20,  0.20,  0.20,  0.20,  0.20,  0.20,  0.20,  0.20
! <Environment:Weather Station>,Wind Sensor Height Above Ground {m},Wind Speed Profile Exponent {},Wind Speed Profile Boundary Layer Thickness {m},Air Temperature Sensor Height Above Ground {m},Wind Speed Modifier Coefficient-Internal,Temperature Modifier Coefficient-Internal
Environment:Weather Station,10.000,0.140,270.000,1.500,1.586,9.750E-003
! <Site:Location>, Location Name, Latitude {N+/S- Deg}, Longitude {E+/W- Deg},  Time Zone Number {GMT+/-}, Elevation {m},  Standard Pressure at Elevation {Pa}, Standard RhoAir at Elevation
Site:Location,San Diego-Brown Field Muni AP CA USA TMY3 WMO#=722904,32.58,-116.98,-8.00,159.00,99429,1.1818
! <Site Water Mains Temperature Information>,Calculation Method{},Water Mains Temperature Schedule Name{},Annual Average Outdoor Air Temperature{C},Maximum Difference In Monthly Average Outdoor Air Temperatures{deltaC},Fixed Default Water Mains Temperature{C}
Site Water Mains Temperature Information,Correlation,NA,16.00,7.10,NA
! <Building Information>, Building Name,North Axis {deg},Terrain,  Loads Convergence Tolerance Value,Temperature Convergence Tolerance Value,  Solar Distribution,Maximum Number of Warmup Days,Minimum Number of Warmup Days
 Building Information,-PrimarySchool-ASHRAE 169-2013-3C created: 2022-11-28 22:35:54 -0700,0.000,City,4.00000E-002,0.20000,FullInteriorAndExterior,25,6
! <Inside Convection Algorithm>, Algorithm {Simple | TARP | CeilingDiffuser | AdaptiveConvectionAlgorithm}
Inside Convection Algorithm,TARP
! <Outside Convection Algorithm>, Algorithm {SimpleCombined | TARP | MoWitt | DOE-2 | AdaptiveConvectionAlgorithm}
Outside Convection Algorithm,TARP
! <Sky Radiance Distribution>, Value {Anisotropic}
Sky Radiance Distribution,Anisotropic
! <Zone Air Solution Algorithm>, Value {ThirdOrderBackwardDifference | AnalyticalSolution | EulerMethod}
 Zone Air Solution Algorithm, ThirdOrderBackwardDifference
! <Zone Air Carbon Dioxide Balance Simulation>, Simulation {Yes/No}, Carbon Dioxide Concentration
 Zone Air Carbon Dioxide Balance Simulation, No,N/A
! <Zone Air Generic Contaminant Balance Simulation>, Simulation {Yes/No}, Generic Contaminant Concentration
 Zone Air Generic Contaminant Balance Simulation, No,N/A
! <Zone Air Mass Flow Balance Simulation>, Enforce Mass Balance, Adjust Zone Mixing and Return {AdjustMixingOnly | AdjustReturnOnly | AdjustMixingThenReturn | AdjustReturnThenMixing | None}, Adjust Zone Infiltration {AddInfiltration | AdjustInfiltration | None}, Infiltration Zones {MixingSourceZonesOnly | AllZones}
 Zone Air Mass Flow Balance Simulation, No,N/A,N/A,N/A
! <HVACSystemRootFindingAlgorithm>, Value {RegulaFalsi | Bisection | BisectionThenRegulaFalsi | RegulaFalsiThenBisection}
 HVACSystemRootFindingAlgorithm, RegulaFalsi
! <Environment:Site Atmospheric Variation>,Wind Speed Profile Exponent {},Wind Speed Profile Boundary Layer Thickness {m},Air Temperature Gradient Coefficient {K/m}
Environment:Site Atmospheric Variation,0.330,460.000,6.500000E-003
! <Surface Geometry>,Starting Corner,Vertex Input Direction,Coordinate System,Daylight Reference Point Coordinate System,Rectangular (Simple) Surface Coordinate System
 Surface Geometry,UpperLeftCorner,Counterclockwise,RelativeCoordinateSystem,RelativeCoordinateSystem,RelativeToZoneOrigin
! <Surface Heat Transfer Algorithm>, Value {CTF - ConductionTransferFunction | EMPD - MoisturePenetrationDepthConductionTransferFunction | CondFD - ConductionFiniteDifference | HAMT - CombinedHeatAndMoistureFiniteElement} - Description,Inside Surface Max Temperature Limit{C}, Surface Convection Coefficient Lower Limit {W/m2-K}, Surface Convection Coefficient Upper Limit {W/m2-K}
Surface Heat Transfer Algorithm, CTF - ConductionTransferFunction,200,0.10,1000.0
! <Shading Summary>, Number of Fixed Detached Shades, Number of Building Detached Shades, Number of Attached Shades
 Shading Summary,0,0,0
! <Zone Summary>, Number of Zones, Number of Zone Surfaces, Number of SubSurfaces
 Zone Summary,25,288,92
! <Zone Information>,Zone Name,North Axis {deg},Origin X-Coordinate {m},Origin Y-Coordinate {m},Origin Z-Coordinate {m},Centroid X-Coordinate {m},Centroid Y-Coordinate {m},Centroid Z-Coordinate {m},Type,Zone Multiplier,Zone List Multiplier,Minimum X {m},Maximum X {m},Minimum Y {m},Maximum Y {m},Minimum Z {m},Maximum Z {m},Ceiling Height {m},Volume {m3},Zone Inside Convection Algorithm {Simple-Detailed-CeilingDiffuser-TrombeWall},Zone Outside Convection Algorithm {Simple-Detailed-Tarp-MoWitt-DOE-2-BLAST}, Floor Area {m2},Exterior Gross Wall Area {m2},Exterior Net Wall Area {m2},Exterior Window Area {m2}, Number of Surfaces, Number of SubSurfaces, Number of Shading SubSurfaces,  Part of Total Building Area
 Zone Information, BATH_ZN_1_FLR_1 ZN,0.0,0.00,51.00,0.00,9.50,56.00,2.00,1,1,1,0.00,19.00,51.00,61.00,0.00,4.00,4.00,760.00,TARP,TARP,190.00,40.00,26.00,14.00,7,1,0,Yes
 Zone Information, CAFETERIA_ZN_1_FLR_1 ZN,0.0,19.00,46.00,0.00,29.50,53.50,2.00,1,1,1,19.00,40.00,46.00,61.00,0.00,4.00,4.00,1260.00,TARP,TARP,315.00,144.00,91.65,50.40,7,4,0,Yes
 Zone Information, COMPUTER_CLASS_ZN_1_FLR_1 ZN,0.0,-18.00,73.00,0.00,-9.00,77.50,2.00,1,1,1,-18.00,0.00,73.00,82.00,0.00,4.00,4.00,648.00,TARP,TARP,162.00,72.00,44.85,25.20,6,3,0,Yes
 Zone Information, CORNER_CLASS_1_POD_1_ZN_1_FLR_1 ZN,0.0,-64.00,0.00,0.00,-58.50,4.50,2.00,1,1,1,-64.00,-53.00,0.00,9.00,0.00,4.00,4.00,396.00,TARP,TARP,99.00,80.00,50.05,28.00,6,4,0,Yes
 Zone Information, CORNER_CLASS_1_POD_2_ZN_1_FLR_1 ZN,0.0,-64.00,30.00,0.00,-58.50,34.50,2.00,1,1,1,-64.00,-53.00,30.00,39.00,0.00,4.00,4.00,396.00,TARP,TARP,99.00,80.00,50.05,28.00,6,4,0,Yes
 Zone Information, CORNER_CLASS_1_POD_3_ZN_1_FLR_1 ZN,0.0,-64.00,61.00,0.00,-58.50,65.50,2.00,1,1,1,-64.00,-53.00,61.00,70.00,0.00,4.00,4.00,396.00,TARP,TARP,99.00,80.00,50.05,28.00,6,4,0,Yes
 Zone Information, CORNER_CLASS_2_POD_1_ZN_1_FLR_1 ZN,0.0,-64.00,12.00,0.00,-58.50,16.50,2.00,1,1,1,-64.00,-53.00,12.00,21.00,0.00,4.00,4.00,396.00,TARP,TARP,99.00,80.00,50.05,28.00,6,4,0,Yes
 Zone Information, CORNER_CLASS_2_POD_2_ZN_1_FLR_1 ZN,0.0,-64.00,42.00,0.00,-58.50,46.50,2.00,1,1,1,-64.00,-53.00,42.00,51.00,0.00,4.00,4.00,396.00,TARP,TARP,99.00,80.00,50.05,28.00,6,4,0,Yes
 Zone Information, CORNER_CLASS_2_POD_3_ZN_1_FLR_1 ZN,0.0,-64.00,73.00,0.00,-58.50,77.50,2.00,1,1,1,-64.00,-53.00,73.00,82.00,0.00,4.00,4.00,396.00,TARP,TARP,99.00,80.00,50.10,27.95,6,4,0,Yes
 Zone Information, CORRIDOR_POD_1_ZN_1_FLR_1 ZN,0.0,-64.00,9.00,0.00,-32.00,10.50,2.00,1,1,1,-64.00,0.00,9.00,12.00,0.00,4.00,4.00,768.00,TARP,TARP,192.00,12.00,7.80,4.20,8,1,0,Yes
 Zone Information, CORRIDOR_POD_2_ZN_1_FLR_1 ZN,0.0,-64.00,39.00,0.00,-32.00,40.50,2.00,1,1,1,-64.00,0.00,39.00,42.00,0.00,4.00,4.00,768.00,TARP,TARP,192.00,12.00,7.80,4.20,8,1,0,Yes
 Zone Information, CORRIDOR_POD_3_ZN_1_FLR_1 ZN,0.0,-64.00,70.00,0.00,-32.00,71.50,2.00,1,1,1,-64.00,0.00,70.00,73.00,0.00,4.00,4.00,768.00,TARP,TARP,192.00,12.00,7.80,4.20,9,1,0,Yes
 Zone Information, GYM_ZN_1_FLR_1 ZN,0.0,19.00,21.00,0.00,29.50,29.50,2.00,1,1,1,19.00,40.00,21.00,38.00,0.00,4.00,4.00,1428.00,TARP,TARP,357.00,68.00,42.25,37.18,6,12,0,Yes
 Zone Information, KITCHEN_ZN_1_FLR_1 ZN,0.0,19.00,38.00,0.00,29.50,42.00,2.00,1,1,1,19.00,40.00,38.00,46.00,0.00,4.00,4.00,672.00,TARP,TARP,168.00,32.00,20.80,11.20,6,1,0,Yes
 Zone Information, LIBRARY_MEDIA_CENTER_ZN_1_FLR_1 ZN,0.0,0.00,61.00,0.00,9.50,71.50,2.00,1,1,1,0.00,19.00,61.00,82.00,0.00,4.00,4.00,1596.00,TARP,TARP,399.00,160.00,102.05,56.00,8,4,0,Yes
 Zone Information, LOBBY_ZN_1_FLR_1 ZN,0.0,0.00,0.00,0.00,9.50,4.50,2.00,1,1,1,0.00,19.00,0.00,9.00,0.00,4.00,4.00,684.00,TARP,TARP,171.00,76.00,47.45,26.60,7,3,0,Yes
 Zone Information, MAIN_CORRIDOR_ZN_1_FLR_1 ZN,0.0,0.00,9.00,0.00,6.50,30.00,2.00,1,1,1,0.00,13.00,9.00,51.00,0.00,4.00,4.00,2184.00,TARP,TARP,546.00,36.00,21.45,12.60,11,3,0,Yes
 Zone Information, MECH_ZN_1_FLR_1 ZN,0.0,13.00,9.00,0.00,16.00,30.00,2.00,1,1,1,13.00,19.00,9.00,51.00,0.00,4.00,4.00,1008.00,TARP,TARP,252.00,0.00,0.00,0.00,9,0,0,Yes
 Zone Information, MULT_CLASS_1_POD_1_ZN_1_FLR_1 ZN,0.0,-53.00,0.00,0.00,-26.50,4.50,2.00,1,1,1,-53.00,0.00,0.00,9.00,0.00,4.00,4.00,1908.00,TARP,TARP,477.00,212.00,133.90,74.20,6,5,0,Yes
 Zone Information, MULT_CLASS_1_POD_2_ZN_1_FLR_1 ZN,0.0,-53.00,30.00,0.00,-26.50,34.50,2.00,1,1,1,-53.00,0.00,30.00,39.00,0.00,4.00,4.00,1908.00,TARP,TARP,477.00,212.00,133.90,74.20,6,5,0,Yes
 Zone Information, MULT_CLASS_1_POD_3_ZN_1_FLR_1 ZN,0.0,-53.00,61.00,0.00,-26.50,65.50,2.00,1,1,1,-53.00,0.00,61.00,70.00,0.00,4.00,4.00,1908.00,TARP,TARP,477.00,212.00,133.90,74.20,6,5,0,Yes
 Zone Information, MULT_CLASS_2_POD_1_ZN_1_FLR_1 ZN,0.0,-53.00,12.00,0.00,-26.50,16.50,2.00,1,1,1,-53.00,0.00,12.00,21.00,0.00,4.00,4.00,1908.00,TARP,TARP,477.00,212.00,133.90,74.20,6,5,0,Yes
 Zone Information, MULT_CLASS_2_POD_2_ZN_1_FLR_1 ZN,0.0,-53.00,42.00,0.00,-26.50,46.50,2.00,1,1,1,-53.00,0.00,42.00,51.00,0.00,4.00,4.00,1908.00,TARP,TARP,477.00,212.00,133.90,74.20,6,5,0,Yes
 Zone Information, MULT_CLASS_2_POD_3_ZN_1_FLR_1 ZN,0.0,-53.00,73.00,0.00,-35.50,77.50,2.00,1,1,1,-53.00,-18.00,73.00,82.00,0.00,4.00,4.00,1260.00,TARP,TARP,315.00,140.00,87.10,49.00,6,5,0,Yes
 Zone Information, OFFICES_ZN_1_FLR_1 ZN,0.0,19.00,0.00,0.00,29.50,10.50,2.00,1,1,1,19.00,40.00,0.00,21.00,0.00,4.00,4.00,1764.00,TARP,TARP,441.00,168.00,107.25,58.80,7,4,0,Yes
! <Zone Internal Gains Nominal>,Zone Name, Floor Area {m2},# Occupants,Area per Occupant {m2/person},Occupant per Area {person/m2},Interior Lighting {W/m2},Electric Load {W/m2},Gas Load {W/m2},Other Load {W/m2},Hot Water Eq {W/m2},Steam Equipment {W/m2},Sum Loads per Area {W/m2},Outdoor Controlled Baseboard Heat
 Zone Internal Gains Nominal, BATH_ZN_1_FLR_1 ZN,190.00,0.0,N/A,0.000,9.149,4.000,0.000,0.000,0.000,0.000,13.149,No
 Zone Internal Gains Nominal, CAFETERIA_ZN_1_FLR_1 ZN,315.00,339.1,0.929,1.076,6.781,25.390,0.000,0.000,0.000,0.000,32.171,No
 Zone Internal Gains Nominal, COMPUTER_CLASS_ZN_1_FLR_1 ZN,162.00,43.6,3.716,0.269,9.903,20.000,0.000,0.000,0.000,0.000,29.903,No
 Zone Internal Gains Nominal, CORNER_CLASS_1_POD_1_ZN_1_FLR_1 ZN,99.00,26.6,3.716,0.269,9.903,15.000,0.000,0.000,0.000,0.000,24.902,No
 Zone Internal Gains Nominal, CORNER_CLASS_1_POD_2_ZN_1_FLR_1 ZN,99.00,26.6,3.716,0.269,9.903,15.000,0.000,0.000,0.000,0.000,24.902,No
 Zone Internal Gains Nominal, CORNER_CLASS_1_POD_3_ZN_1_FLR_1 ZN,99.00,26.6,3.716,0.269,9.903,15.000,0.000,0.000,0.000,0.000,24.902,No
 Zone Internal Gains Nominal, CORNER_CLASS_2_POD_1_ZN_1_FLR_1 ZN,99.00,26.6,3.716,0.269,9.903,15.000,0.000,0.000,0.000,0.000,24.902,No
 Zone Internal Gains Nominal, CORNER_CLASS_2_POD_2_ZN_1_FLR_1 ZN,99.00,26.6,3.716,0.269,9.903,15.000,0.000,0.000,0.000,0.000,24.902,No
 Zone Internal Gains Nominal, CORNER_CLASS_2_POD_3_ZN_1_FLR_1 ZN,99.00,26.6,3.716,0.269,9.903,15.000,0.000,0.000,0.000,0.000,24.902,No
 Zone Internal Gains Nominal, CORRIDOR_POD_1_ZN_1_FLR_1 ZN,192.00,0.0,N/A,0.000,7.104,4.000,0.000,0.000,0.000,0.000,11.104,No
 Zone Internal Gains Nominal, CORRIDOR_POD_2_ZN_1_FLR_1 ZN,192.00,0.0,N/A,0.000,7.104,4.000,0.000,0.000,0.000,0.000,11.104,No
 Zone Internal Gains Nominal, CORRIDOR_POD_3_ZN_1_FLR_1 ZN,192.00,0.0,N/A,0.000,7.104,4.000,0.000,0.000,0.000,0.000,11.104,No
 Zone Internal Gains Nominal, GYM_ZN_1_FLR_1 ZN,357.00,115.3,3.097,0.323,5.382,5.000,0.000,0.000,0.000,0.000,10.382,No
 Zone Internal Gains Nominal, KITCHEN_ZN_1_FLR_1 ZN,168.00,27.0,6.223,0.161,11.410,199.289,1431.238,0.000,0.000,0.000,1641.937,No
 Zone Internal Gains Nominal, LIBRARY_MEDIA_CENTER_ZN_1_FLR_1 ZN,399.00,42.9,9.290,0.108,8.396,15.000,0.000,0.000,0.000,0.000,23.395,No
 Zone Internal Gains Nominal, LOBBY_ZN_1_FLR_1 ZN,171.00,0.0,N/A,0.000,10.764,4.000,0.000,0.000,0.000,0.000,14.764,No
 Zone Internal Gains Nominal, MAIN_CORRIDOR_ZN_1_FLR_1 ZN,546.00,0.0,N/A,0.000,7.104,4.000,0.000,0.000,0.000,0.000,11.104,No
 Zone Internal Gains Nominal, MECH_ZN_1_FLR_1 ZN,252.00,0.0,N/A,0.000,4.628,10.000,0.000,0.000,0.000,0.000,14.628,No
 Zone Internal Gains Nominal, MULT_CLASS_1_POD_1_ZN_1_FLR_1 ZN,477.00,128.4,3.716,0.269,9.903,15.000,0.000,0.000,0.000,0.000,24.902,No
 Zone Internal Gains Nominal, MULT_CLASS_1_POD_2_ZN_1_FLR_1 ZN,477.00,128.4,3.716,0.269,9.903,15.000,0.000,0.000,0.000,0.000,24.902,No
 Zone Internal Gains Nominal, MULT_CLASS_1_POD_3_ZN_1_FLR_1 ZN,477.00,128.4,3.716,0.269,9.903,15.000,0.000,0.000,0.000,0.000,24.902,No
 Zone Internal Gains Nominal, MULT_CLASS_2_POD_1_ZN_1_FLR_1 ZN,477.00,128.4,3.716,0.269,9.903,15.000,0.000,0.000,0.000,0.000,24.902,No
 Zone Internal Gains Nominal, MULT_CLASS_2_POD_2_ZN_1_FLR_1 ZN,477.00,128.4,3.716,0.269,9.903,15.000,0.000,0.000,0.000,0.000,24.902,No
 Zone Internal Gains Nominal, MULT_CLASS_2_POD_3_ZN_1_FLR_1 ZN,315.00,84.8,3.716,0.269,9.903,15.000,0.000,0.000,0.000,0.000,24.902,No
 Zone Internal Gains Nominal, OFFICES_ZN_1_FLR_1 ZN,441.00,23.7,18.581,5.382E-002,10.010,10.801,0.000,0.000,0.000,0.000,20.811,No
! <People Internal Gains Nominal>,Name,Schedule Name,Zone Name,Zone Floor Area {m2},# Zone Occupants,Number of People {},People/Floor Area {person/m2},Floor Area per person {m2/person},Fraction Radiant,Fraction Convected,Sensible Fraction Calculation,Activity level,ASHRAE 55 Warnings,Carbon Dioxide Generation Rate,Nominal Minimum Number of People,Nominal Maximum Number of People
 People Internal Gains Nominal, CAFETERIA_ZN_1_FLR_1 ZN PRIMARYSCHOOL CAFETERIA PEOPLE,SCHOOLPRIMARY BLDG_OCC_SCH_CAFETERIA,CAFETERIA_ZN_1_FLR_1 ZN,315.00,339.1,339.1,1.076,0.929,0.300,0.700,AutoCalculate,SCHOOLPRIMARY ACTIVITY_SCH,No,3.8200E-008,0,322
 People Internal Gains Nominal, CORNER_CLASS_1_POD_1_ZN_1_FLR_1 ZN PRIMARYSCHOOL CLASSROOM PEOPLE,SCHOOLPRIMARY BLDG_OCC_SCH,CORNER_CLASS_1_POD_1_ZN_1_FLR_1 ZN,99.00,26.6,26.6,0.269,3.716,0.300,0.700,AutoCalculate,SCHOOLPRIMARY ACTIVITY_SCH,No,3.8200E-008,0,25
 People Internal Gains Nominal, CORNER_CLASS_1_POD_2_ZN_1_FLR_1 ZN PRIMARYSCHOOL CLASSROOM PEOPLE,SCHOOLPRIMARY BLDG_OCC_SCH,CORNER_CLASS_1_POD_2_ZN_1_FLR_1 ZN,99.00,26.6,26.6,0.269,3.716,0.300,0.700,AutoCalculate,SCHOOLPRIMARY ACTIVITY_SCH,No,3.8200E-008,0,25
 People Internal Gains Nominal, CORNER_CLASS_1_POD_3_ZN_1_FLR_1 ZN PRIMARYSCHOOL CLASSROOM PEOPLE,SCHOOLPRIMARY BLDG_OCC_SCH,CORNER_CLASS_1_POD_3_ZN_1_FLR_1 ZN,99.00,26.6,26.6,0.269,3.716,0.300,0.700,AutoCalculate,SCHOOLPRIMARY ACTIVITY_SCH,No,3.8200E-008,0,25
 People Internal Gains Nominal, CORNER_CLASS_2_POD_1_ZN_1_FLR_1 ZN PRIMARYSCHOOL CLASSROOM PEOPLE,SCHOOLPRIMARY BLDG_OCC_SCH,CORNER_CLASS_2_POD_1_ZN_1_FLR_1 ZN,99.00,26.6,26.6,0.269,3.716,0.300,0.700,AutoCalculate,SCHOOLPRIMARY ACTIVITY_SCH,No,3.8200E-008,0,25
 People Internal Gains Nominal, CORNER_CLASS_2_POD_2_ZN_1_FLR_1 ZN PRIMARYSCHOOL CLASSROOM PEOPLE,SCHOOLPRIMARY BLDG_OCC_SCH,CORNER_CLASS_2_POD_2_ZN_1_FLR_1 ZN,99.00,26.6,26.6,0.269,3.716,0.300,0.700,AutoCalculate,SCHOOLPRIMARY ACTIVITY_SCH,No,3.8200E-008,0,25
 People Internal Gains Nominal, CORNER_CLASS_2_POD_3_ZN_1_FLR_1 ZN PRIMARYSCHOOL CLASSROOM PEOPLE,SCHOOLPRIMARY BLDG_OCC_SCH,CORNER_CLASS_2_POD_3_ZN_1_FLR_1 ZN,99.00,26.6,26.6,0.269,3.716,0.300,0.700,AutoCalculate,SCHOOLPRIMARY ACTIVITY_SCH,No,3.8200E-008,0,25
 People Internal Gains Nominal, MULT_CLASS_1_POD_1_ZN_1_FLR_1 ZN PRIMARYSCHOOL CLASSROOM PEOPLE,SCHOOLPRIMARY BLDG_OCC_SCH,MULT_CLASS_1_POD_1_ZN_1_FLR_1 ZN,477.00,128.4,128.4,0.269,3.716,0.300,0.700,AutoCalculate,SCHOOLPRIMARY ACTIVITY_SCH,No,3.8200E-008,0,122
 People Internal Gains Nominal, MULT_CLASS_1_POD_2_ZN_1_FLR_1 ZN PRIMARYSCHOOL CLASSROOM PEOPLE,SCHOOLPRIMARY BLDG_OCC_SCH,MULT_CLASS_1_POD_2_ZN_1_FLR_1 ZN,477.00,128.4,128.4,0.269,3.716,0.300,0.700,AutoCalculate,SCHOOLPRIMARY ACTIVITY_SCH,No,3.8200E-008,0,122
 People Internal Gains Nominal, MULT_CLASS_1_POD_3_ZN_1_FLR_1 ZN PRIMARYSCHOOL CLASSROOM PEOPLE,SCHOOLPRIMARY BLDG_OCC_SCH,MULT_CLASS_1_POD_3_ZN_1_FLR_1 ZN,477.00,128.4,128.4,0.269,3.716,0.300,0.700,AutoCalculate,SCHOOLPRIMARY ACTIVITY_SCH,No,3.8200E-008,0,122
 People Internal Gains Nominal, MULT_CLASS_2_POD_1_ZN_1_FLR_1 ZN PRIMARYSCHOOL CLASSROOM PEOPLE,SCHOOLPRIMARY BLDG_OCC_SCH,MULT_CLASS_2_POD_1_ZN_1_FLR_1 ZN,477.00,128.4,128.4,0.269,3.716,0.300,0.700,AutoCalculate,SCHOOLPRIMARY ACTIVITY_SCH,No,3.8200E-008,0,122
 People Internal Gains Nominal, MULT_CLASS_2_POD_2_ZN_1_FLR_1 ZN PRIMARYSCHOOL CLASSROOM PEOPLE,SCHOOLPRIMARY BLDG_OCC_SCH,MULT_CLASS_2_POD_2_ZN_1_FLR_1 ZN,477.00,128.4,128.4,0.269,3.716,0.300,0.700,AutoCalculate,SCHOOLPRIMARY ACTIVITY_SCH,No,3.8200E-008,0,122
 People Internal Gains Nominal, MULT_CLASS_2_POD_3_ZN_1_FLR_1 ZN PRIMARYSCHOOL CLASSROOM PEOPLE,SCHOOLPRIMARY BLDG_OCC_SCH,MULT_CLASS_2_POD_3_ZN_1_FLR_1 ZN,315.00,84.8,84.8,0.269,3.716,0.300,0.700,AutoCalculate,SCHOOLPRIMARY ACTIVITY_SCH,No,3.8200E-008,0,81
 People Internal Gains Nominal, COMPUTER_CLASS_ZN_1_FLR_1 ZN PRIMARYSCHOOL COMPUTERROOM PEOPLE,SCHOOLPRIMARY BLDG_OCC_SCH_EXTEND,COMPUTER_CLASS_ZN_1_FLR_1 ZN,162.00,43.6,43.6,0.269,3.716,0.300,0.700,AutoCalculate,SCHOOLPRIMARY ACTIVITY_SCH,No,3.8200E-008,0,41
 People Internal Gains Nominal, GYM_ZN_1_FLR_1 ZN PRIMARYSCHOOL GYM PEOPLE,SCHOOLPRIMARY BLDG_OCC_SCH_GYM,GYM_ZN_1_FLR_1 ZN,357.00,115.3,115.3,0.323,3.097,0.300,0.700,AutoCalculate,SCHOOLPRIMARY ACTIVITY_SCH,No,3.8200E-008,0,110
 People Internal Gains Nominal, KITCHEN_ZN_1_FLR_1 ZN PRIMARYSCHOOL KITCHEN PEOPLE,SCHOOLPRIMARY BLDG_OCC_SCH,KITCHEN_ZN_1_FLR_1 ZN,168.00,27.0,27.0,0.161,6.223,0.300,0.700,AutoCalculate,SCHOOLPRIMARY ACTIVITY_SCH,No,3.8200E-008,0,26
 People Internal Gains Nominal, LIBRARY_MEDIA_CENTER_ZN_1_FLR_1 ZN PRIMARYSCHOOL LIBRARY PEOPLE,SCHOOLPRIMARY BLDG_OCC_SCH,LIBRARY_MEDIA_CENTER_ZN_1_FLR_1 ZN,399.00,42.9,42.9,0.108,9.290,0.300,0.700,AutoCalculate,SCHOOLPRIMARY ACTIVITY_SCH,No,3.8200E-008,0,41
 People Internal Gains Nominal, OFFICES_ZN_1_FLR_1 ZN PRIMARYSCHOOL OFFICE PEOPLE,SCHOOLPRIMARY BLDG_OCC_SCH_OFFICES,OFFICES_ZN_1_FLR_1 ZN,441.00,23.7,23.7,5.382E-002,18.581,0.300,0.700,AutoCalculate,SCHOOLPRIMARY ACTIVITY_SCH,No,3.8200E-008,0,23
! <Lights Internal Gains Nominal>,Name,Schedule Name,Zone Name,Zone Floor Area {m2},# Zone Occupants,Lighting Level {W},Lights/Floor Area {W/m2},Lights per person {W/person},Fraction Return Air,Fraction Radiant,Fraction Short Wave,Fraction Convected,Fraction Replaceable,End-Use Category,Nominal Minimum Lighting Level {W},Nominal Maximum Lighting Level {W}
 Lights Internal Gains Nominal, CAFETERIA_ZN_1_FLR_1 ZN PRIMARYSCHOOL CAFETERIA LIGHTS,SCHOOLPRIMARY BLDG_LIGHT_SCH_2013,CAFETERIA_ZN_1_FLR_1 ZN,315.00,339.1,2136.098,6.781,6.300,0.000,0.370,0.200,0.430,1.000,General,0.000,2136.098
 Lights Internal Gains Nominal, CORNER_CLASS_1_POD_1_ZN_1_FLR_1 ZN PRIMARYSCHOOL CLASSROOM LIGHTS,SCHOOLPRIMARY BLDG_LIGHT_CLASSROOM_SCH_2013,CORNER_CLASS_1_POD_1_ZN_1_FLR_1 ZN,99.00,26.6,980.377,9.903,36.800,0.000,0.370,0.200,0.430,1.000,General,0.000,980.377
 Lights Internal Gains Nominal, CORNER_CLASS_1_POD_2_ZN_1_FLR_1 ZN PRIMARYSCHOOL CLASSROOM LIGHTS,SCHOOLPRIMARY BLDG_LIGHT_CLASSROOM_SCH_2013,CORNER_CLASS_1_POD_2_ZN_1_FLR_1 ZN,99.00,26.6,980.377,9.903,36.800,0.000,0.370,0.200,0.430,1.000,General,0.000,980.377
 Lights Internal Gains Nominal, CORNER_CLASS_1_POD_3_ZN_1_FLR_1 ZN PRIMARYSCHOOL CLASSROOM LIGHTS,SCHOOLPRIMARY BLDG_LIGHT_CLASSROOM_SCH_2013,CORNER_CLASS_1_POD_3_ZN_1_FLR_1 ZN,99.00,26.6,980.377,9.903,36.800,0.000,0.370,0.200,0.430,1.000,General,0.000,980.377
 Lights Internal Gains Nominal, CORNER_CLASS_2_POD_1_ZN_1_FLR_1 ZN PRIMARYSCHOOL CLASSROOM LIGHTS,SCHOOLPRIMARY BLDG_LIGHT_CLASSROOM_SCH_2013,CORNER_CLASS_2_POD_1_ZN_1_FLR_1 ZN,99.00,26.6,980.377,9.903,36.800,0.000,0.370,0.200,0.430,1.000,General,0.000,980.377
 Lights Internal Gains Nominal, CORNER_CLASS_2_POD_2_ZN_1_FLR_1 ZN PRIMARYSCHOOL CLASSROOM LIGHTS,SCHOOLPRIMARY BLDG_LIGHT_CLASSROOM_SCH_2013,CORNER_CLASS_2_POD_2_ZN_1_FLR_1 ZN,99.00,26.6,980.377,9.903,36.800,0.000,0.370,0.200,0.430,1.000,General,0.000,980.377
 Lights Internal Gains Nominal, CORNER_CLASS_2_POD_3_ZN_1_FLR_1 ZN PRIMARYSCHOOL CLASSROOM LIGHTS,SCHOOLPRIMARY BLDG_LIGHT_CLASSROOM_SCH_2013,CORNER_CLASS_2_POD_3_ZN_1_FLR_1 ZN,99.00,26.6,980.377,9.903,36.800,0.000,0.370,0.200,0.430,1.000,General,0.000,980.377
 Lights Internal Gains Nominal, MULT_CLASS_1_POD_1_ZN_1_FLR_1 ZN PRIMARYSCHOOL CLASSROOM LIGHTS,SCHOOLPRIMARY BLDG_LIGHT_CLASSROOM_SCH_2013,MULT_CLASS_1_POD_1_ZN_1_FLR_1 ZN,477.00,128.4,4723.634,9.903,36.800,0.000,0.370,0.200,0.430,1.000,General,0.000,4723.634
 Lights Internal Gains Nominal, MULT_CLASS_1_POD_2_ZN_1_FLR_1 ZN PRIMARYSCHOOL CLASSROOM LIGHTS,SCHOOLPRIMARY BLDG_LIGHT_CLASSROOM_SCH_2013,MULT_CLASS_1_POD_2_ZN_1_FLR_1 ZN,477.00,128.4,4723.634,9.903,36.800,0.000,0.370,0.200,0.430,1.000,General,0.000,4723.634
 Lights Internal Gains Nominal, MULT_CLASS_1_POD_3_ZN_1_FLR_1 ZN PRIMARYSCHOOL CLASSROOM LIGHTS,SCHOOLPRIMARY BLDG_LIGHT_CLASSROOM_SCH_2013,MULT_CLASS_1_POD_3_ZN_1_FLR_1 ZN,477.00,128.4,4723.634,9.903,36.800,0.000,0.370,0.200,0.430,1.000,General,0.000,4723.634
 Lights Internal Gains Nominal, MULT_CLASS_2_POD_1_ZN_1_FLR_1 ZN PRIMARYSCHOOL CLASSROOM LIGHTS,SCHOOLPRIMARY BLDG_LIGHT_CLASSROOM_SCH_2013,MULT_CLASS_2_POD_1_ZN_1_FLR_1 ZN,477.00,128.4,4723.634,9.903,36.800,0.000,0.370,0.200,0.430,1.000,General,0.000,4723.634
 Lights Internal Gains Nominal, MULT_CLASS_2_POD_2_ZN_1_FLR_1 ZN PRIMARYSCHOOL CLASSROOM LIGHTS,SCHOOLPRIMARY BLDG_LIGHT_CLASSROOM_SCH_2013,MULT_CLASS_2_POD_2_ZN_1_FLR_1 ZN,477.00,128.4,4723.634,9.903,36.800,0.000,0.370,0.200,0.430,1.000,General,0.000,4723.634
 Lights Internal Gains Nominal, MULT_CLASS_2_POD_3_ZN_1_FLR_1 ZN PRIMARYSCHOOL CLASSROOM LIGHTS,SCHOOLPRIMARY BLDG_LIGHT_CLASSROOM_SCH_2013,MULT_CLASS_2_POD_3_ZN_1_FLR_1 ZN,315.00,84.8,3119.381,9.903,36.800,0.000,0.370,0.200,0.430,1.000,General,0.000,3119.381
 Lights Internal Gains Nominal, COMPUTER_CLASS_ZN_1_FLR_1 ZN PRIMARYSCHOOL COMPUTERROOM LIGHTS,SCHOOLPRIMARY BLDG_LIGHT_CLASSROOM_SCH_2013,COMPUTER_CLASS_ZN_1_FLR_1 ZN,162.00,43.6,1604.253,9.903,36.800,0.000,0.370,0.200,0.430,1.000,General,0.000,1604.253
 Lights Internal Gains Nominal, CORRIDOR_POD_1_ZN_1_FLR_1 ZN PRIMARYSCHOOL CORRIDOR LIGHTS,SCHOOLPRIMARY BLDG_LIGHT_CORRIDOR_SCH_2013,CORRIDOR_POD_1_ZN_1_FLR_1 ZN,192.00,0.0,1364.003,7.104,N/A,0.000,0.370,0.200,0.430,1.000,General,0.000,1364.003
 Lights Internal Gains Nominal, CORRIDOR_POD_2_ZN_1_FLR_1 ZN PRIMARYSCHOOL CORRIDOR LIGHTS,SCHOOLPRIMARY BLDG_LIGHT_CORRIDOR_SCH_2013,CORRIDOR_POD_2_ZN_1_FLR_1 ZN,192.00,0.0,1364.003,7.104,N/A,0.000,0.370,0.200,0.430,1.000,General,0.000,1364.003
 Lights Internal Gains Nominal, CORRIDOR_POD_3_ZN_1_FLR_1 ZN PRIMARYSCHOOL CORRIDOR LIGHTS,SCHOOLPRIMARY BLDG_LIGHT_CORRIDOR_SCH_2013,CORRIDOR_POD_3_ZN_1_FLR_1 ZN,192.00,0.0,1364.003,7.104,N/A,0.000,0.370,0.200,0.430,1.000,General,0.000,1364.003
 Lights Internal Gains Nominal, MAIN_CORRIDOR_ZN_1_FLR_1 ZN PRIMARYSCHOOL CORRIDOR LIGHTS,SCHOOLPRIMARY BLDG_LIGHT_CORRIDOR_SCH_2013,MAIN_CORRIDOR_ZN_1_FLR_1 ZN,546.00,0.0,3878.883,7.104,N/A,0.000,0.370,0.200,0.430,1.000,General,0.000,3878.883
 Lights Internal Gains Nominal, GYM_ZN_1_FLR_1 ZN PRIMARYSCHOOL GYM LIGHTS,SCHOOLPRIMARY BLDG_LIGHT_GYM_SCH_2013,GYM_ZN_1_FLR_1 ZN,357.00,115.3,1921.358,5.382,16.667,0.000,0.370,0.200,0.430,1.000,General,0.000,1921.358
 Lights Internal Gains Nominal, KITCHEN_ZN_1_FLR_1 ZN PRIMARYSCHOOL KITCHEN LIGHTS,SCHOOLPRIMARY BLDG_LIGHT_SCH_2013,KITCHEN_ZN_1_FLR_1 ZN,168.00,27.0,1916.837,11.410,70.998,0.000,0.370,0.200,0.430,1.000,General,0.000,1916.837
 Lights Internal Gains Nominal, LIBRARY_MEDIA_CENTER_ZN_1_FLR_1 ZN PRIMARYSCHOOL LIBRARY LIGHTS,SCHOOLPRIMARY BLDG_LIGHT_LIBRARY_SCH_2013,LIBRARY_MEDIA_CENTER_ZN_1_FLR_1 ZN,399.00,42.9,3349.944,8.396,78.000,0.000,0.370,0.200,0.430,1.000,General,0.000,3349.944
 Lights Internal Gains Nominal, LOBBY_ZN_1_FLR_1 ZN PRIMARYSCHOOL LOBBY LIGHTS,SCHOOLPRIMARY BLDG_LIGHT_LOBBYFLR1_SCH_2013,LOBBY_ZN_1_FLR_1 ZN,171.00,0.0,1840.629,10.764,N/A,0.000,0.370,0.200,0.430,1.000,General,0.000,1840.629
 Lights Internal Gains Nominal, MECH_ZN_1_FLR_1 ZN PRIMARYSCHOOL MECHANICAL LIGHTS,SCHOOLPRIMARY BLDG_LIGHT_SCH_2013,MECH_ZN_1_FLR_1 ZN,252.00,0.0,1166.377,4.628,N/A,0.000,0.370,0.200,0.430,1.000,General,0.000,1166.377
 Lights Internal Gains Nominal, OFFICES_ZN_1_FLR_1 ZN PRIMARYSCHOOL OFFICE LIGHTS,SCHOOLPRIMARY BLDG_LIGHT_SCH_2013,OFFICES_ZN_1_FLR_1 ZN,441.00,23.7,4414.603,10.010,186.000,0.000,0.370,0.200,0.430,1.000,General,0.000,4414.603
 Lights Internal Gains Nominal, BATH_ZN_1_FLR_1 ZN PRIMARYSCHOOL RESTROOM LIGHTS,SCHOOLPRIMARY BLDG_LIGHT_BATH_SCH_2013,BATH_ZN_1_FLR_1 ZN,190.00,0.0,1738.372,9.149,N/A,0.000,0.370,0.200,0.430,1.000,General,0.000,1738.372
! <ElectricEquipment Internal Gains Nominal>,Name,Schedule Name,Zone Name,Zone Floor Area {m2},# Zone Occupants,Equipment Level {W},Equipment/Floor Area {W/m2},Equipment per person {W/person},Fraction Latent,Fraction Radiant,Fraction Lost,Fraction Convected,End-Use SubCategory,Nominal Minimum Equipment Level {W},Nominal Maximum Equipment Level {W}
 ElectricEquipment Internal Gains Nominal, CAFETERIA_ZN_1_FLR_1 ZN PRIMARYSCHOOL CAFETERIA ELEC EQUIP,SCHOOLPRIMARY KITCHEN_ELEC_EQUIP_SCH,CAFETERIA_ZN_1_FLR_1 ZN,315.00,339.1,7997.822,25.390,23.588,0.000,0.500,0.000,0.500,General,799.782,1999.456
 ElectricEquipment Internal Gains Nominal, CORNER_CLASS_1_POD_1_ZN_1_FLR_1 ZN PRIMARYSCHOOL CLASSROOM ELEC EQUIP,SCHOOLPRIMARY BLDG_EQUIP_SCH_2013,CORNER_CLASS_1_POD_1_ZN_1_FLR_1 ZN,99.00,26.6,1484.951,15.000,55.740,0.000,0.500,0.000,0.500,General,289.449,1410.704
 ElectricEquipment Internal Gains Nominal, CORNER_CLASS_1_POD_2_ZN_1_FLR_1 ZN PRIMARYSCHOOL CLASSROOM ELEC EQUIP,SCHOOLPRIMARY BLDG_EQUIP_SCH_2013,CORNER_CLASS_1_POD_2_ZN_1_FLR_1 ZN,99.00,26.6,1484.951,15.000,55.740,0.000,0.500,0.000,0.500,General,289.449,1410.704
 ElectricEquipment Internal Gains Nominal, CORNER_CLASS_1_POD_3_ZN_1_FLR_1 ZN PRIMARYSCHOOL CLASSROOM ELEC EQUIP,SCHOOLPRIMARY BLDG_EQUIP_SCH_2013,CORNER_CLASS_1_POD_3_ZN_1_FLR_1 ZN,99.00,26.6,1484.951,15.000,55.740,0.000,0.500,0.000,0.500,General,289.449,1410.704
 ElectricEquipment Internal Gains Nominal, CORNER_CLASS_2_POD_1_ZN_1_FLR_1 ZN PRIMARYSCHOOL CLASSROOM ELEC EQUIP,SCHOOLPRIMARY BLDG_EQUIP_SCH_2013,CORNER_CLASS_2_POD_1_ZN_1_FLR_1 ZN,99.00,26.6,1484.951,15.000,55.740,0.000,0.500,0.000,0.500,General,289.449,1410.704
 ElectricEquipment Internal Gains Nominal, CORNER_CLASS_2_POD_2_ZN_1_FLR_1 ZN PRIMARYSCHOOL CLASSROOM ELEC EQUIP,SCHOOLPRIMARY BLDG_EQUIP_SCH_2013,CORNER_CLASS_2_POD_2_ZN_1_FLR_1 ZN,99.00,26.6,1484.951,15.000,55.740,0.000,0.500,0.000,0.500,General,289.449,1410.704
 ElectricEquipment Internal Gains Nominal, CORNER_CLASS_2_POD_3_ZN_1_FLR_1 ZN PRIMARYSCHOOL CLASSROOM ELEC EQUIP,SCHOOLPRIMARY BLDG_EQUIP_SCH_2013,CORNER_CLASS_2_POD_3_ZN_1_FLR_1 ZN,99.00,26.6,1484.951,15.000,55.740,0.000,0.500,0.000,0.500,General,289.449,1410.704
 ElectricEquipment Internal Gains Nominal, MULT_CLASS_1_POD_1_ZN_1_FLR_1 ZN PRIMARYSCHOOL CLASSROOM ELEC EQUIP,SCHOOLPRIMARY BLDG_EQUIP_SCH_2013,MULT_CLASS_1_POD_1_ZN_1_FLR_1 ZN,477.00,128.4,7154.766,15.000,55.740,0.000,0.500,0.000,0.500,General,1394.616,6797.028
 ElectricEquipment Internal Gains Nominal, MULT_CLASS_1_POD_2_ZN_1_FLR_1 ZN PRIMARYSCHOOL CLASSROOM ELEC EQUIP,SCHOOLPRIMARY BLDG_EQUIP_SCH_2013,MULT_CLASS_1_POD_2_ZN_1_FLR_1 ZN,477.00,128.4,7154.766,15.000,55.740,0.000,0.500,0.000,0.500,General,1394.616,6797.028
 ElectricEquipment Internal Gains Nominal, MULT_CLASS_1_POD_3_ZN_1_FLR_1 ZN PRIMARYSCHOOL CLASSROOM ELEC EQUIP,SCHOOLPRIMARY BLDG_EQUIP_SCH_2013,MULT_CLASS_1_POD_3_ZN_1_FLR_1 ZN,477.00,128.4,7154.766,15.000,55.740,0.000,0.500,0.000,0.500,General,1394.616,6797.028
 ElectricEquipment Internal Gains Nominal, MULT_CLASS_2_POD_1_ZN_1_FLR_1 ZN PRIMARYSCHOOL CLASSROOM ELEC EQUIP,SCHOOLPRIMARY BLDG_EQUIP_SCH_2013,MULT_CLASS_2_POD_1_ZN_1_FLR_1 ZN,477.00,128.4,7154.766,15.000,55.740,0.000,0.500,0.000,0.500,General,1394.616,6797.028
 ElectricEquipment Internal Gains Nominal, MULT_CLASS_2_POD_2_ZN_1_FLR_1 ZN PRIMARYSCHOOL CLASSROOM ELEC EQUIP,SCHOOLPRIMARY BLDG_EQUIP_SCH_2013,MULT_CLASS_2_POD_2_ZN_1_FLR_1 ZN,477.00,128.4,7154.766,15.000,55.740,0.000,0.500,0.000,0.500,General,1394.616,6797.028
 ElectricEquipment Internal Gains Nominal, MULT_CLASS_2_POD_3_ZN_1_FLR_1 ZN PRIMARYSCHOOL CLASSROOM ELEC EQUIP,SCHOOLPRIMARY BLDG_EQUIP_SCH_2013,MULT_CLASS_2_POD_3_ZN_1_FLR_1 ZN,315.00,84.8,4724.845,15.000,55.740,0.000,0.500,0.000,0.500,General,920.973,4488.603
 ElectricEquipment Internal Gains Nominal, COMPUTER_CLASS_ZN_1_FLR_1 ZN PRIMARYSCHOOL COMPUTERROOM ELEC EQUIP,SCHOOLPRIMARY BLDG_EQUIP_SCH_2013,COMPUTER_CLASS_ZN_1_FLR_1 ZN,162.00,43.6,3240.068,20.000,74.324,0.000,0.500,0.000,0.500,General,631.558,3078.065
 ElectricEquipment Internal Gains Nominal, CORRIDOR_POD_1_ZN_1_FLR_1 ZN PRIMARYSCHOOL CORRIDOR ELEC EQUIP,SCHOOLPRIMARY BLDG_EQUIP_SCH_2013,CORRIDOR_POD_1_ZN_1_FLR_1 ZN,192.00,0.0,767.975,4.000,N/A,0.000,0.500,0.000,0.500,General,149.695,729.576
 ElectricEquipment Internal Gains Nominal, CORRIDOR_POD_2_ZN_1_FLR_1 ZN PRIMARYSCHOOL CORRIDOR ELEC EQUIP,SCHOOLPRIMARY BLDG_EQUIP_SCH_2013,CORRIDOR_POD_2_ZN_1_FLR_1 ZN,192.00,0.0,767.975,4.000,N/A,0.000,0.500,0.000,0.500,General,149.695,729.576
 ElectricEquipment Internal Gains Nominal, CORRIDOR_POD_3_ZN_1_FLR_1 ZN PRIMARYSCHOOL CORRIDOR ELEC EQUIP,SCHOOLPRIMARY BLDG_EQUIP_SCH_2013,CORRIDOR_POD_3_ZN_1_FLR_1 ZN,192.00,0.0,767.975,4.000,N/A,0.000,0.500,0.000,0.500,General,149.695,729.576
 ElectricEquipment Internal Gains Nominal, MAIN_CORRIDOR_ZN_1_FLR_1 ZN PRIMARYSCHOOL CORRIDOR ELEC EQUIP,SCHOOLPRIMARY BLDG_EQUIP_SCH_2013,MAIN_CORRIDOR_ZN_1_FLR_1 ZN,546.00,0.0,2183.929,4.000,N/A,0.000,0.500,0.000,0.500,General,425.694,2074.732
 ElectricEquipment Internal Gains Nominal, GYM_ZN_1_FLR_1 ZN PRIMARYSCHOOL GYM ELEC EQUIP,SCHOOLPRIMARY BLDG_EQUIP_SCH_2013,GYM_ZN_1_FLR_1 ZN,357.00,115.3,1784.942,5.000,15.483,0.000,0.500,0.000,0.500,General,347.923,1695.695
 ElectricEquipment Internal Gains Nominal, KITCHEN_ZN_1_FLR_1 ZN KITCHEN_REACH-IN-FREEZER,SCHOOLPRIMARY ALWAYS_ON,KITCHEN_ZN_1_FLR_1 ZN,168.00,27.0,915.000,5.446,33.891,0.000,0.250,0.000,0.750,General,915.000,915.000
 ElectricEquipment Internal Gains Nominal, KITCHEN_ZN_1_FLR_1 ZN KITCHEN_REACH-IN-REFRIGERATOR,SCHOOLPRIMARY ALWAYS_ON,KITCHEN_ZN_1_FLR_1 ZN,168.00,27.0,570.000,3.393,21.112,0.000,0.250,0.000,0.750,General,570.000,570.000
 ElectricEquipment Internal Gains Nominal, KITCHEN_ZN_1_FLR_1 ZN PRIMARYSCHOOL KITCHEN ELEC EQUIP,SCHOOLPRIMARY KITCHEN_ELEC_EQUIP_SCH,KITCHEN_ZN_1_FLR_1 ZN,168.00,27.0,31995.629,190.450,1185.090,0.250,0.300,0.200,0.250,General,3199.563,7998.907
 ElectricEquipment Internal Gains Nominal, LIBRARY_MEDIA_CENTER_ZN_1_FLR_1 ZN PRIMARYSCHOOL LIBRARY ELEC EQUIP,SCHOOLPRIMARY BLDG_EQUIP_SCH_2013,LIBRARY_MEDIA_CENTER_ZN_1_FLR_1 ZN,399.00,42.9,5984.804,15.000,139.350,0.000,0.500,0.000,0.500,General,1166.566,5685.564
 ElectricEquipment Internal Gains Nominal, LOBBY_ZN_1_FLR_1 ZN PRIMARYSCHOOL LOBBY ELEC EQUIP,SCHOOLPRIMARY BLDG_EQUIP_SCH_2013,LOBBY_ZN_1_FLR_1 ZN,171.00,0.0,683.978,4.000,N/A,0.000,0.500,0.000,0.500,General,133.322,649.779
 ElectricEquipment Internal Gains Nominal, MECH_ZN_1_FLR_1 ZN PRIMARYSCHOOL MECHANICAL ELEC EQUIP,SCHOOLPRIMARY BLDG_EQUIP_SCH_2013,MECH_ZN_1_FLR_1 ZN,252.00,0.0,2519.918,10.000,N/A,0.000,0.500,0.000,0.500,General,491.186,2393.922
 ElectricEquipment Internal Gains Nominal, OFFICES_ZN_1_FLR_1 ZN PRIMARYSCHOOL OFFICE ELEC EQUIP,SCHOOLPRIMARY BLDG_EQUIP_SCH_2013,OFFICES_ZN_1_FLR_1 ZN,441.00,23.7,4763.024,10.801,200.680,0.000,0.500,0.000,0.500,General,928.415,4524.873
 ElectricEquipment Internal Gains Nominal, BATH_ZN_1_FLR_1 ZN PRIMARYSCHOOL RESTROOM ELEC EQUIP,SCHOOLPRIMARY BLDG_EQUIP_SCH_2013,BATH_ZN_1_FLR_1 ZN,190.00,0.0,759.975,4.000,N/A,0.000,0.500,0.000,0.500,General,148.135,721.976
! <GasEquipment Internal Gains Nominal>,Name,Schedule Name,Zone Name,Zone Floor Area {m2},# Zone Occupants,Equipment Level {W},Equipment/Floor Area {W/m2},Equipment per person {W/person},Fraction Latent,Fraction Radiant,Fraction Lost,Fraction Convected,End-Use SubCategory,Nominal Minimum Equipment Level {W},Nominal Maximum Equipment Level {W}
 GasEquipment Internal Gains Nominal, KITCHEN_ZN_1_FLR_1 ZN PRIMARYSCHOOL KITCHEN GAS EQUIP,SCHOOLPRIMARY KITCHEN_GAS_EQUIP_SCH,KITCHEN_ZN_1_FLR_1 ZN,168.00,27.0,240447.954,1431.238,8905.984,0.100,0.200,0.700,0.000,General,4808.959,48089.591
! <Shadowing/Sun Position Calculations Annual Simulations>, Shading Calculation Method, Shading Calculation Update Frequency Method, Shading Calculation Update Frequency {days}, Maximum Figures in Shadow Overlap Calculations {}, Polygon Clipping Algorithm, Pixel Counting Resolution, Sky Diffuse Modeling Algorithm, Output External Shading Calculation Results, Disable Self-Shading Within Shading Zone Groups, Disable Self-Shading From Shading Zone Groups to Other Zones
Shadowing/Sun Position Calculations Annual Simulations,PolygonClipping,Periodic,15000,15000,SutherlandHodgman,512,SimpleSkyDiffuseModeling,No,No,No
! <#Detailed Refrigeration Systems>,Number of Detailed Refrigeration Systems
! <Detailed Refrigeration System>,Refrigeration System Name,Refrigerant Used, # Refrigerated Cases Connected, # WalkInCoolers Connected, #Air Chillers Connected, # Secondary Loops Served, # Cascade Condensers Served, # Mechanical Subcoolers Served, # Compressors Connected, # Compression Stages, Intercooler Type, Intercooler Effectiveness, # Subcoolers Connected, Minimum Condensing Temperature (C)
!  <Refrigeration Compressor>,Compressor Number,Compressor Name,Nominal Capacity (W)
!  <Refrigeration Case>,Refrigeration Case Number, Refrigeration Case Name,Zone Name,Zone Node #,Zone Node Name,Capacity (W/m),LHR,Temperature (C),Length (m),Fan (W/m),Installed Lighting (W/m),Anti-Sweat (W/m),Defrost (W/m)
!  <Refrigeration Walk In Cooler>, Walk In Number, Walk In Name,Capacity (W),Temperature (C),Coil Fan (W), Circulating Fan (W), Lighting (W),Heaters (W),Defrost (W), # Zones
!      <Walk-In Surfaces Facing Zone>, ZoneName, Wall/Ceiling Area (m2), UValue (W/m2-C), AreaStockDoors (m2), HeightStockDoors, UValueStockDoors (W/m2-C), AreaGlassDoors (m2), HeightGlassDoors (m),  UValueGlassDoors (W/m2-C)
!  <Refrigeration Condenser:Air-Cooled>,Condenser Number,Condenser Name,Rated Condensing Temperature (C),Rated Capacity (W), Rated Fan Power (W)
#Detailed Refrigeration Systems,1
 Detailed Refrigeration System,REFRSYSTEM - PRIMARY SCHOOL,R404A,1,1,0,0,0,0,20,1,0,0.80,0,21.0
   Refrigeration Case,1,CASE PRIMARY SCHOOL,KITCHEN_ZN_1_FLR_1 ZN,211,NODE 14,734.0,8.00E-002,2.0,3.7,15.7,33.0,0.0,0.0
   Refrigeration Walk In Cooler,1,WALK-IN PRIMARY SCHOOL,2686.4,-23.0,250.0,0.0,120.8,0.0,1500.6,1
      Walk-In Surfaces Facing Zone, KITCHEN_ZN_1_FLR_1 ZN,43.4,0.2350,2.00,2.00,0.3785,0.00,1.50,1.1360
   Refrigeration Compressor,1,REFRIGERATION COMPRESSOR 1,18278
   Refrigeration Compressor,2,REFRIGERATION COMPRESSOR 2,18278
   Refrigeration Compressor,3,REFRIGERATION COMPRESSOR 3,18278
   Refrigeration Compressor,4,REFRIGERATION COMPRESSOR 4,18278
   Refrigeration Compressor,5,REFRIGERATION COMPRESSOR 5,18278
   Refrigeration Compressor,6,REFRIGERATION COMPRESSOR 6,18278
   Refrigeration Compressor,7,REFRIGERATION COMPRESSOR 7,18278
   Refrigeration Compressor,8,REFRIGERATION COMPRESSOR 8,18278
   Refrigeration Compressor,9,REFRIGERATION COMPRESSOR 9,18278
   Refrigeration Compressor,10,REFRIGERATION COMPRESSOR 10,18278
   Refrigeration Compressor,11,REFRIGERATION COMPRESSOR 11,18278
   Refrigeration Compressor,12,REFRIGERATION COMPRESSOR 12,18278
   Refrigeration Compressor,13,REFRIGERATION COMPRESSOR 13,18278
   Refrigeration Compressor,14,REFRIGERATION COMPRESSOR 14,18278
   Refrigeration Compressor,15,REFRIGERATION COMPRESSOR 15,18278
   Refrigeration Compressor,16,REFRIGERATION COMPRESSOR 16,18278
   Refrigeration Compressor,17,REFRIGERATION COMPRESSOR 17,18278
   Refrigeration Compressor,18,REFRIGERATION COMPRESSOR 18,18278
   Refrigeration Compressor,19,REFRIGERATION COMPRESSOR 19,18278
   Refrigeration Compressor,20,REFRIGERATION COMPRESSOR 20,18278
   Refrigeration Condenser:Air-Cooled,1,REFRIGERATION CONDENSER AIR COOLED 1,51.7,16814.8,946.5
! <Water Heater Information>,Type,Name,Volume {m3},Maximum Capacity {W},Standard Rated Recovery Efficiency, Standard Rated Energy Factor
! <ZoneInfiltration Airflow Stats Nominal>,Name,Schedule Name,Zone Name, Zone Floor Area {m2}, # Zone Occupants,Design Volume Flow Rate {m3/s},Volume Flow Rate/Floor Area {m3/s-m2},Volume Flow Rate/Exterior Surface Area {m3/s-m2},ACH - Air Changes per Hour,Equation A - Constant Term Coefficient {},Equation B - Temperature Term Coefficient {1/C},Equation C - Velocity Term Coefficient {s/m}, Equation D - Velocity Squared Term Coefficient {s2/m2}
 ZoneInfiltration Airflow Stats Nominal, BATH_ZN_1_FLR_1 INFILTRATION,SCHOOLPRIMARY INFIL_SCH_PNNL,BATH_ZN_1_FLR_1 ZN,190.00,0.0,2.278E-002,1.199E-004,9.906E-005,0.108,0.000,0.000,0.224,0.000
 ZoneInfiltration Airflow Stats Nominal, CAFETERIA_ZN_1_FLR_1 INFILTRATION,SCHOOLPRIMARY INFIL_SCH_PNNL,CAFETERIA_ZN_1_FLR_1 ZN,315.00,339.1,8.237E-002,2.615E-004,1.787E-004,0.235,0.000,0.000,0.224,0.000
 ZoneInfiltration Airflow Stats Nominal, COMPUTER_CLASS_ZN_1_FLR_1 INFILTRATION,SCHOOLPRIMARY INFIL_SCH_PNNL,COMPUTER_CLASS_ZN_1_FLR_1 ZN,162.00,43.6,4.135E-002,2.553E-004,1.753E-004,0.230,0.000,0.000,0.224,0.000
 ZoneInfiltration Airflow Stats Nominal, CORNER_CLASS_1_POD_1_ZN_1_FLR_1 INFILTRATION,SCHOOLPRIMARY INFIL_SCH_PNNL,CORNER_CLASS_1_POD_1_ZN_1_FLR_1 ZN,99.00,26.6,4.606E-002,4.653E-004,2.546E-004,0.419,0.000,0.000,0.224,0.000
 ZoneInfiltration Airflow Stats Nominal, CORNER_CLASS_1_POD_2_ZN_1_FLR_1 INFILTRATION,SCHOOLPRIMARY INFIL_SCH_PNNL,CORNER_CLASS_1_POD_2_ZN_1_FLR_1 ZN,99.00,26.6,4.606E-002,4.653E-004,2.546E-004,0.419,0.000,0.000,0.224,0.000
 ZoneInfiltration Airflow Stats Nominal, CORNER_CLASS_1_POD_3_ZN_1_FLR_1 INFILTRATION,SCHOOLPRIMARY INFIL_SCH_PNNL,CORNER_CLASS_1_POD_3_ZN_1_FLR_1 ZN,99.00,26.6,4.606E-002,4.653E-004,2.546E-004,0.419,0.000,0.000,0.224,0.000
 ZoneInfiltration Airflow Stats Nominal, CORNER_CLASS_2_POD_1_ZN_1_FLR_1 INFILTRATION,SCHOOLPRIMARY INFIL_SCH_PNNL,CORNER_CLASS_2_POD_1_ZN_1_FLR_1 ZN,99.00,26.6,4.606E-002,4.653E-004,2.546E-004,0.419,0.000,0.000,0.224,0.000
 ZoneInfiltration Airflow Stats Nominal, CORNER_CLASS_2_POD_2_ZN_1_FLR_1 INFILTRATION,SCHOOLPRIMARY INFIL_SCH_PNNL,CORNER_CLASS_2_POD_2_ZN_1_FLR_1 ZN,99.00,26.6,4.606E-002,4.653E-004,2.546E-004,0.419,0.000,0.000,0.224,0.000
 ZoneInfiltration Airflow Stats Nominal, CORNER_CLASS_2_POD_3_ZN_1_FLR_1 INFILTRATION,SCHOOLPRIMARY INFIL_SCH_PNNL,CORNER_CLASS_2_POD_3_ZN_1_FLR_1 ZN,99.00,26.6,4.606E-002,4.653E-004,2.546E-004,0.419,0.000,0.000,0.224,0.000
 ZoneInfiltration Airflow Stats Nominal, CORRIDOR_POD_1_ZN_1_FLR_1 INFILTRATION,SCHOOLPRIMARY INFIL_SCH_PNNL,CORRIDOR_POD_1_ZN_1_FLR_1 ZN,192.00,0.0,6.835E-003,3.560E-005,3.350E-005,3.204E-002,0.000,0.000,0.224,0.000
 ZoneInfiltration Airflow Stats Nominal, CORRIDOR_POD_2_ZN_1_FLR_1 INFILTRATION,SCHOOLPRIMARY INFIL_SCH_PNNL,CORRIDOR_POD_2_ZN_1_FLR_1 ZN,192.00,0.0,6.835E-003,3.560E-005,3.350E-005,3.204E-002,0.000,0.000,0.224,0.000
 ZoneInfiltration Airflow Stats Nominal, CORRIDOR_POD_3_ZN_1_FLR_1 INFILTRATION,SCHOOLPRIMARY INFIL_SCH_PNNL,CORRIDOR_POD_3_ZN_1_FLR_1 ZN,192.00,0.0,6.835E-003,3.560E-005,3.350E-005,3.204E-002,0.000,0.000,0.224,0.000
 ZoneInfiltration Airflow Stats Nominal, GYM_ZN_1_FLR_1 INFILTRATION,SCHOOLPRIMARY INFIL_SCH_PNNL,GYM_ZN_1_FLR_1 ZN,357.00,115.3,3.891E-002,1.090E-004,9.113E-005,9.809E-002,0.000,0.000,0.224,0.000
 ZoneInfiltration Airflow Stats Nominal, KITCHEN_ZN_1_FLR_1 INFILTRATION,SCHOOLPRIMARY INFIL_SCH_PNNL,KITCHEN_ZN_1_FLR_1 ZN,168.00,27.0,1.823E-002,1.085E-004,9.113E-005,9.764E-002,0.000,0.000,0.224,0.000
 ZoneInfiltration Airflow Stats Nominal, LIBRARY_MEDIA_CENTER_ZN_1_FLR_1 INFILTRATION,SCHOOLPRIMARY INFIL_SCH_PNNL,LIBRARY_MEDIA_CENTER_ZN_1_FLR_1 ZN,399.00,42.9,9.145E-002,2.292E-004,1.630E-004,0.206,0.000,0.000,0.224,0.000
 ZoneInfiltration Airflow Stats Nominal, LOBBY_ZN_1_FLR_1 INFILTRATION,SCHOOLPRIMARY INFIL_SCH_PNNL,LOBBY_ZN_1_FLR_1 ZN,171.00,0.0,4.363E-002,2.551E-004,1.753E-004,0.230,0.000,0.000,0.224,0.000
 ZoneInfiltration Airflow Stats Nominal, MAIN_CORRIDOR_ZN_1_FLR_1 INFILTRATION,SCHOOLPRIMARY INFIL_SCH_PNNL,MAIN_CORRIDOR_ZN_1_FLR_1 ZN,546.00,0.0,2.057E-002,3.768E-005,3.523E-005,3.391E-002,0.000,0.000,0.224,0.000
 ZoneInfiltration Airflow Stats Nominal, MULT_CLASS_1_POD_1_ZN_1_FLR_1 INFILTRATION,SCHOOLPRIMARY INFIL_SCH_PNNL,MULT_CLASS_1_POD_1_ZN_1_FLR_1 ZN,477.00,128.4,0.121,2.546E-004,1.753E-004,0.229,0.000,0.000,0.224,0.000
 ZoneInfiltration Airflow Stats Nominal, MULT_CLASS_1_POD_2_ZN_1_FLR_1 INFILTRATION,SCHOOLPRIMARY INFIL_SCH_PNNL,MULT_CLASS_1_POD_2_ZN_1_FLR_1 ZN,477.00,128.4,0.121,2.546E-004,1.753E-004,0.229,0.000,0.000,0.224,0.000
 ZoneInfiltration Airflow Stats Nominal, MULT_CLASS_1_POD_3_ZN_1_FLR_1 INFILTRATION,SCHOOLPRIMARY INFIL_SCH_PNNL,MULT_CLASS_1_POD_3_ZN_1_FLR_1 ZN,477.00,128.4,0.121,2.546E-004,1.753E-004,0.229,0.000,0.000,0.224,0.000
 ZoneInfiltration Airflow Stats Nominal, MULT_CLASS_2_POD_1_ZN_1_FLR_1 INFILTRATION,SCHOOLPRIMARY INFIL_SCH_PNNL,MULT_CLASS_2_POD_1_ZN_1_FLR_1 ZN,477.00,128.4,0.121,2.546E-004,1.753E-004,0.229,0.000,0.000,0.224,0.000
 ZoneInfiltration Airflow Stats Nominal, MULT_CLASS_2_POD_2_ZN_1_FLR_1 INFILTRATION,SCHOOLPRIMARY INFIL_SCH_PNNL,MULT_CLASS_2_POD_2_ZN_1_FLR_1 ZN,477.00,128.4,0.121,2.546E-004,1.753E-004,0.229,0.000,0.000,0.224,0.000
 ZoneInfiltration Airflow Stats Nominal, MULT_CLASS_2_POD_3_ZN_1_FLR_1 INFILTRATION,SCHOOLPRIMARY INFIL_SCH_PNNL,MULT_CLASS_2_POD_3_ZN_1_FLR_1 ZN,315.00,84.8,8.042E-002,2.553E-004,1.753E-004,0.230,0.000,0.000,0.224,0.000
 ZoneInfiltration Airflow Stats Nominal, OFFICES_ZN_1_FLR_1 INFILTRATION,SCHOOLPRIMARY INFIL_SCH_PNNL,OFFICES_ZN_1_FLR_1 ZN,441.00,23.7,9.599E-002,2.177E-004,1.571E-004,0.196,0.000,0.000,0.224,0.000
! <AirFlow Model>, Simple
 AirFlow Model, Simple
! <RoomAir Model>, Zone Name, Mixing/Mundt/UCSDDV/UCSDCV/UCSDUFI/UCSDUFE/User Defined
RoomAir Model,BATH_ZN_1_FLR_1 ZN,Mixing/Well-Stirred
RoomAir Model,CAFETERIA_ZN_1_FLR_1 ZN,Mixing/Well-Stirred
RoomAir Model,COMPUTER_CLASS_ZN_1_FLR_1 ZN,Mixing/Well-Stirred
RoomAir Model,CORNER_CLASS_1_POD_1_ZN_1_FLR_1 ZN,Mixing/Well-Stirred
RoomAir Model,CORNER_CLASS_1_POD_2_ZN_1_FLR_1 ZN,Mixing/Well-Stirred
RoomAir Model,CORNER_CLASS_1_POD_3_ZN_1_FLR_1 ZN,Mixing/Well-Stirred
RoomAir Model,CORNER_CLASS_2_POD_1_ZN_1_FLR_1 ZN,Mixing/Well-Stirred
RoomAir Model,CORNER_CLASS_2_POD_2_ZN_1_FLR_1 ZN,Mixing/Well-Stirred
RoomAir Model,CORNER_CLASS_2_POD_3_ZN_1_FLR_1 ZN,Mixing/Well-Stirred
RoomAir Model,CORRIDOR_POD_1_ZN_1_FLR_1 ZN,Mixing/Well-Stirred
RoomAir Model,CORRIDOR_POD_2_ZN_1_FLR_1 ZN,Mixing/Well-Stirred
RoomAir Model,CORRIDOR_POD_3_ZN_1_FLR_1 ZN,Mixing/Well-Stirred
RoomAir Model,GYM_ZN_1_FLR_1 ZN,Mixing/Well-Stirred
RoomAir Model,KITCHEN_ZN_1_FLR_1 ZN,Mixing/Well-Stirred
RoomAir Model,LIBRARY_MEDIA_CENTER_ZN_1_FLR_1 ZN,Mixing/Well-Stirred
RoomAir Model,LOBBY_ZN_1_FLR_1 ZN,Mixing/Well-Stirred
RoomAir Model,MAIN_CORRIDOR_ZN_1_FLR_1 ZN,Mixing/Well-Stirred
RoomAir Model,MECH_ZN_1_FLR_1 ZN,Mixing/Well-Stirred
RoomAir Model,MULT_CLASS_1_POD_1_ZN_1_FLR_1 ZN,Mixing/Well-Stirred
RoomAir Model,MULT_CLASS_1_POD_2_ZN_1_FLR_1 ZN,Mixing/Well-Stirred
RoomAir Model,MULT_CLASS_1_POD_3_ZN_1_FLR_1 ZN,Mixing/Well-Stirred
RoomAir Model,MULT_CLASS_2_POD_1_ZN_1_FLR_1 ZN,Mixing/Well-Stirred
RoomAir Model,MULT_CLASS_2_POD_2_ZN_1_FLR_1 ZN,Mixing/Well-Stirred
RoomAir Model,MULT_CLASS_2_POD_3_ZN_1_FLR_1 ZN,Mixing/Well-Stirred
RoomAir Model,OFFICES_ZN_1_FLR_1 ZN,Mixing/Well-Stirred
! <AirflowNetwork Model:Control>, No Multizone or Distribution/Multizone with Distribution/Multizone without Distribution/Multizone with Distribution only during Fan Operation
AirflowNetwork Model:Control,NoMultizoneOrDistribution
! <Zone Volume Capacitance Multiplier>, Sensible Heat Capacity Multiplier, Moisture Capacity Multiplier, Carbon Dioxide Capacity Multiplier, Generic Contaminant Capacity Multiplier
Zone Volume Capacitance Multiplier,   1.000 ,   1.000,   1.000,   1.000
! <Load Timesteps in Zone Design Calculation Averaging Window>, Value
 Load Timesteps in Zone Design Calculation Averaging Window,    6
! <Heating Sizing Factor Information>, Sizing Factor ID, Value
 Heating Sizing Factor Information, Global,   1.0000    
! <Cooling Sizing Factor Information>, Sizing Factor ID, Value
 Cooling Sizing Factor Information, Global,   1.0000    
! <Zone Sizing Information>, Zone Name, Load Type, Calc Des Load {W}, User Des Load {W}, Calc Des Air Flow Rate {m3/s}, User Des Air Flow Rate {m3/s}, Design Day Name, Date/Time of Peak, Temperature at Peak {C}, Humidity Ratio at Peak {kgWater/kgDryAir}, Floor Area {m2}, # Occupants, Calc Outdoor Air Flow Rate {m3/s}, Calc DOAS Heat Addition Rate {W}
 Zone Sizing Information, BATH_ZN_1_FLR_1 ZN, Cooling, 4656.80136, 4656.80136, 0.34403, 0.34403, SAN.DIEGO-BROWN.FIELD.MUNI.AP_CA_USA ANN CLG .4% CONDNS DB=>MWB, 8/21 16:30:00, 30.41000, 8.23207E-003, 190.00000, 0.00000, 0.00000, 0.00000
 Zone Sizing Information, BATH_ZN_1_FLR_1 ZN, Heating, 1474.51219, 1474.51219, 4.21924E-002, 4.21924E-002, SAN.DIEGO-BROWN.FIELD.MUNI.AP_CA_USA ANN HTG 99.6% CONDNS DB, 12/21 22:30:00, 3.80000, 5.05843E-003, 190.00000, 0.00000, 0.00000, 0.00000
 Zone Sizing Information, CAFETERIA_ZN_1_FLR_1 ZN, Cooling, 26574.92070, 26574.92070, 1.96647, 1.96647, SAN.DIEGO-BROWN.FIELD.MUNI.AP_CA_USA ANN CLG .4% CONDNS DB=>MWB, 8/21 13:00:00, 30.85500, 8.23278E-003, 315.00000, 339.06318, 1.48819, 0.00000
 Zone Sizing Information, CAFETERIA_ZN_1_FLR_1 ZN, Heating, 3216.26545, 3216.26545, 9.20311E-002, 1.48819, SAN.DIEGO-BROWN.FIELD.MUNI.AP_CA_USA ANN HTG 99.6% CONDNS DB, 12/21 21:40:00, 3.80000, 5.05843E-003, 315.00000, 339.06318, 1.48819, 0.00000
 Zone Sizing Information, COMPUTER_CLASS_ZN_1_FLR_1 ZN, Cooling, 8020.17596, 8020.17596, 0.59275, 0.59275, SAN.DIEGO-BROWN.FIELD.MUNI.AP_CA_USA ANN CLG .4% CONDNS DB=>MWB, 8/21 14:50:00, 31.30000, 8.23349E-003, 162.00000, 43.59384, 0.30450, 0.00000
 Zone Sizing Information, COMPUTER_CLASS_ZN_1_FLR_1 ZN, Heating, 1209.22217, 1209.22217, 3.46011E-002, 0.30450, SAN.DIEGO-BROWN.FIELD.MUNI.AP_CA_USA ANN HTG 99.6% CONDNS DB, 12/21 24:00:00, 3.80000, 5.05843E-003, 162.00000, 43.59384, 0.30450, 0.00000
 Zone Sizing Information, CORNER_CLASS_1_POD_1_ZN_1_FLR_1 ZN, Cooling, 6203.63934, 6203.63934, 0.45848, 0.45848, SAN.DIEGO-BROWN.FIELD.MUNI.AP_CA_USA ANN CLG .4% CONDNS DB=>MWB, 8/21 15:40:00, 30.94400, 8.23292E-003, 99.00000, 26.64068, 0.18608, 0.00000
 Zone Sizing Information, CORNER_CLASS_1_POD_1_ZN_1_FLR_1 ZN, Heating, 1563.85048, 1563.85048, 4.47481E-002, 0.18608, SAN.DIEGO-BROWN.FIELD.MUNI.AP_CA_USA ANN HTG 99.6% CONDNS DB, 12/21 24:00:00, 3.80000, 5.05843E-003, 99.00000, 26.64068, 0.18608, 0.00000
 Zone Sizing Information, CORNER_CLASS_1_POD_2_ZN_1_FLR_1 ZN, Cooling, 6159.38810, 6159.38810, 0.45521, 0.45521, SAN.DIEGO-BROWN.FIELD.MUNI.AP_CA_USA ANN CLG .4% CONDNS DB=>MWB, 8/21 15:40:00, 30.94400, 8.23292E-003, 99.00000, 26.64068, 0.18608, 0.00000
 Zone Sizing Information, CORNER_CLASS_1_POD_2_ZN_1_FLR_1 ZN, Heating, 1543.39238, 1543.39238, 4.41627E-002, 0.18608, SAN.DIEGO-BROWN.FIELD.MUNI.AP_CA_USA ANN HTG 99.6% CONDNS DB, 12/21 24:00:00, 3.80000, 5.05843E-003, 99.00000, 26.64068, 0.18608, 0.00000
 Zone Sizing Information, CORNER_CLASS_1_POD_3_ZN_1_FLR_1 ZN, Cooling, 6163.97286, 6163.97286, 0.45555, 0.45555, SAN.DIEGO-BROWN.FIELD.MUNI.AP_CA_USA ANN CLG .4% CONDNS DB=>MWB, 8/21 15:40:00, 30.94400, 8.23292E-003, 99.00000, 26.64068, 0.18608, 0.00000
 Zone Sizing Information, CORNER_CLASS_1_POD_3_ZN_1_FLR_1 ZN, Heating, 1545.21946, 1545.21946, 4.42150E-002, 0.18608, SAN.DIEGO-BROWN.FIELD.MUNI.AP_CA_USA ANN HTG 99.6% CONDNS DB, 12/21 24:00:00, 3.80000, 5.05843E-003, 99.00000, 26.64068, 0.18608, 0.00000
 Zone Sizing Information, CORNER_CLASS_2_POD_1_ZN_1_FLR_1 ZN, Cooling, 5732.05156, 5732.05156, 0.42363, 0.42363, SAN.DIEGO-BROWN.FIELD.MUNI.AP_CA_USA ANN CLG .4% CONDNS DB=>MWB, 8/21 16:00:00, 30.76600, 8.23264E-003, 99.00000, 26.64068, 0.18608, 0.00000
 Zone Sizing Information, CORNER_CLASS_2_POD_1_ZN_1_FLR_1 ZN, Heating, 1536.03093, 1536.03093, 4.39521E-002, 0.18608, SAN.DIEGO-BROWN.FIELD.MUNI.AP_CA_USA ANN HTG 99.6% CONDNS DB, 12/21 24:00:00, 3.80000, 5.05843E-003, 99.00000, 26.64068, 0.18608, 0.00000
 Zone Sizing Information, CORNER_CLASS_2_POD_2_ZN_1_FLR_1 ZN, Cooling, 5734.35944, 5734.35944, 0.42380, 0.42380, SAN.DIEGO-BROWN.FIELD.MUNI.AP_CA_USA ANN CLG .4% CONDNS DB=>MWB, 8/21 16:00:00, 30.76600, 8.23264E-003, 99.00000, 26.64068, 0.18608, 0.00000
 Zone Sizing Information, CORNER_CLASS_2_POD_2_ZN_1_FLR_1 ZN, Heating, 1537.50232, 1537.50232, 4.39942E-002, 0.18608, SAN.DIEGO-BROWN.FIELD.MUNI.AP_CA_USA ANN HTG 99.6% CONDNS DB, 12/21 24:00:00, 3.80000, 5.05843E-003, 99.00000, 26.64068, 0.18608, 0.00000
 Zone Sizing Information, CORNER_CLASS_2_POD_3_ZN_1_FLR_1 ZN, Cooling, 5774.97183, 5774.97183, 0.42681, 0.42681, SAN.DIEGO-BROWN.FIELD.MUNI.AP_CA_USA ANN CLG .4% CONDNS DB=>MWB, 8/21 16:00:00, 30.76600, 8.23264E-003, 99.00000, 26.64068, 0.18608, 0.00000
 Zone Sizing Information, CORNER_CLASS_2_POD_3_ZN_1_FLR_1 ZN, Heating, 1556.36590, 1556.36590, 4.45340E-002, 0.18608, SAN.DIEGO-BROWN.FIELD.MUNI.AP_CA_USA ANN HTG 99.6% CONDNS DB, 12/21 24:00:00, 3.80000, 5.05843E-003, 99.00000, 26.64068, 0.18608, 0.00000
 Zone Sizing Information, CORRIDOR_POD_1_ZN_1_FLR_1 ZN, Cooling, 4448.13091, 4448.13091, 0.32862, 0.32862, SAN.DIEGO-BROWN.FIELD.MUNI.AP_CA_USA ANN CLG .4% CONDNS DB=>MWB, 8/21 15:40:00, 30.94400, 8.23292E-003, 192.00000, 0.00000, 5.85216E-002, 0.00000
 Zone Sizing Information, CORRIDOR_POD_1_ZN_1_FLR_1 ZN, Heating, 1306.70229, 1306.70229, 3.73908E-002, 5.85216E-002, SAN.DIEGO-BROWN.FIELD.MUNI.AP_CA_USA ANN HTG 99.6% CONDNS DB, 12/21 24:00:00, 3.80000, 5.05843E-003, 192.00000, 0.00000, 5.85216E-002, 0.00000
 Zone Sizing Information, CORRIDOR_POD_2_ZN_1_FLR_1 ZN, Cooling, 4431.66752, 4431.66752, 0.32740, 0.32740, SAN.DIEGO-BROWN.FIELD.MUNI.AP_CA_USA ANN CLG .4% CONDNS DB=>MWB, 8/21 15:40:00, 30.94400, 8.23292E-003, 192.00000, 0.00000, 5.85216E-002, 0.00000
 Zone Sizing Information, CORRIDOR_POD_2_ZN_1_FLR_1 ZN, Heating, 1298.63458, 1298.63458, 3.71599E-002, 5.85216E-002, SAN.DIEGO-BROWN.FIELD.MUNI.AP_CA_USA ANN HTG 99.6% CONDNS DB, 12/21 24:00:00, 3.80000, 5.05843E-003, 192.00000, 0.00000, 5.85216E-002, 0.00000
 Zone Sizing Information, CORRIDOR_POD_3_ZN_1_FLR_1 ZN, Cooling, 4480.09559, 4480.09559, 0.33098, 0.33098, SAN.DIEGO-BROWN.FIELD.MUNI.AP_CA_USA ANN CLG .4% CONDNS DB=>MWB, 8/21 15:40:00, 30.94400, 8.23292E-003, 192.00000, 0.00000, 5.85216E-002, 0.00000
 Zone Sizing Information, CORRIDOR_POD_3_ZN_1_FLR_1 ZN, Heating, 1300.74111, 1300.74111, 3.72202E-002, 5.85216E-002, SAN.DIEGO-BROWN.FIELD.MUNI.AP_CA_USA ANN HTG 99.6% CONDNS DB, 12/21 24:00:00, 3.80000, 5.05843E-003, 192.00000, 0.00000, 5.85216E-002, 0.00000
 Zone Sizing Information, GYM_ZN_1_FLR_1 ZN, Cooling, 13824.04149, 13824.04149, 1.02161, 1.02161, SAN.DIEGO-BROWN.FIELD.MUNI.AP_CA_USA ANN CLG .4% CONDNS DB=>MWB, 8/21 17:00:00, 30.05400, 8.23151E-003, 357.00000, 115.28148, 0.54407, 0.00000
 Zone Sizing Information, GYM_ZN_1_FLR_1 ZN, Heating, 2820.75102, 2820.75102, 8.07143E-002, 0.54407, SAN.DIEGO-BROWN.FIELD.MUNI.AP_CA_USA ANN HTG 99.6% CONDNS DB, 12/21 21:40:00, 3.80000, 5.05843E-003, 357.00000, 115.28148, 0.54407, 0.00000
 Zone Sizing Information, KITCHEN_ZN_1_FLR_1 ZN, Cooling, 13543.27255, 13543.27255, 1.00188, 1.00188, SAN.DIEGO-BROWN.FIELD.MUNI.AP_CA_USA ANN CLG .4% CONDNS DB=>MWB, 8/21 13:00:00, 30.85500, 8.23278E-003, 168.00000, 26.99847, 0.24918, 0.00000
 Zone Sizing Information, KITCHEN_ZN_1_FLR_1 ZN, Heating, 0.00000, 0.00000, 0.00000, 0.24918, ,  00:10:00, 23.91300, 8.22186E-003, 168.00000, 26.99847, 0.24918, 0.00000
 Zone Sizing Information, LIBRARY_MEDIA_CENTER_ZN_1_FLR_1 ZN, Cooling, 14544.74586, 14544.74586, 1.07471, 1.07471, SAN.DIEGO-BROWN.FIELD.MUNI.AP_CA_USA ANN CLG .4% CONDNS DB=>MWB, 8/21 14:10:00, 31.30000, 8.23349E-003, 399.00000, 42.94800, 0.44592, 0.00000
 Zone Sizing Information, LIBRARY_MEDIA_CENTER_ZN_1_FLR_1 ZN, Heating, 3266.20075, 3266.20075, 9.34602E-002, 0.44592, SAN.DIEGO-BROWN.FIELD.MUNI.AP_CA_USA ANN HTG 99.6% CONDNS DB, 12/21 24:00:00, 3.80000, 5.05843E-003, 399.00000, 42.94800, 0.44592, 0.00000
 Zone Sizing Information, LOBBY_ZN_1_FLR_1 ZN, Cooling, 4842.89802, 4842.89802, 0.35778, 0.35778, SAN.DIEGO-BROWN.FIELD.MUNI.AP_CA_USA ANN CLG .4% CONDNS DB=>MWB, 8/21 13:50:00, 31.22583, 8.23338E-003, 171.00000, 0.00000, 5.21208E-002, 0.00000
 Zone Sizing Information, LOBBY_ZN_1_FLR_1 ZN, Heating, 2119.87511, 2119.87511, 6.06587E-002, 6.06587E-002, SAN.DIEGO-BROWN.FIELD.MUNI.AP_CA_USA ANN HTG 99.6% CONDNS DB, 12/21 22:40:00, 3.80000, 5.05843E-003, 171.00000, 0.00000, 5.21208E-002, 0.00000
 Zone Sizing Information, MAIN_CORRIDOR_ZN_1_FLR_1 ZN, Cooling, 9352.78319, 9352.78319, 0.69096, 0.69096, SAN.DIEGO-BROWN.FIELD.MUNI.AP_CA_USA ANN CLG .4% CONDNS DB=>MWB, 8/21 15:50:00, 30.85500, 8.23278E-003, 546.00000, 0.00000, 0.16642, 0.00000
 Zone Sizing Information, MAIN_CORRIDOR_ZN_1_FLR_1 ZN, Heating, 2803.64408, 2803.64408, 8.02251E-002, 0.16642, SAN.DIEGO-BROWN.FIELD.MUNI.AP_CA_USA ANN HTG 99.6% CONDNS DB, 12/21 22:40:00, 3.80000, 5.05843E-003, 546.00000, 0.00000, 0.16642, 0.00000
 Zone Sizing Information, MECH_ZN_1_FLR_1 ZN, Cooling, 5107.97811, 5107.97811, 0.37736, 0.37736, SAN.DIEGO-BROWN.FIELD.MUNI.AP_CA_USA ANN CLG .4% CONDNS DB=>MWB, 8/21 14:10:00, 31.30000, 8.23349E-003, 252.00000, 0.00000, 0.15362, 0.00000
 Zone Sizing Information, MECH_ZN_1_FLR_1 ZN, Heating, 272.36505, 272.36505, 7.79363E-003, 0.15362, SAN.DIEGO-BROWN.FIELD.MUNI.AP_CA_USA ANN HTG 99.6% CONDNS DB, 12/21 21:40:00, 3.80000, 5.05843E-003, 252.00000, 0.00000, 0.15362, 0.00000
 Zone Sizing Information, MULT_CLASS_1_POD_1_ZN_1_FLR_1 ZN, Cooling, 24398.67389, 24398.67389, 1.80325, 1.80325, SAN.DIEGO-BROWN.FIELD.MUNI.AP_CA_USA ANN CLG .4% CONDNS DB=>MWB, 8/21 13:50:00, 31.22583, 8.23338E-003, 477.00000, 128.35963, 0.89657, 0.00000
 Zone Sizing Information, MULT_CLASS_1_POD_1_ZN_1_FLR_1 ZN, Heating, 4309.33156, 4309.33156, 0.12331, 0.89657, SAN.DIEGO-BROWN.FIELD.MUNI.AP_CA_USA ANN HTG 99.6% CONDNS DB, 12/21 24:00:00, 3.80000, 5.05843E-003, 477.00000, 128.35963, 0.89657, 0.00000
 Zone Sizing Information, MULT_CLASS_1_POD_2_ZN_1_FLR_1 ZN, Cooling, 24155.58442, 24155.58442, 1.78528, 1.78528, SAN.DIEGO-BROWN.FIELD.MUNI.AP_CA_USA ANN CLG .4% CONDNS DB=>MWB, 8/21 13:50:00, 31.22583, 8.23338E-003, 477.00000, 128.35963, 0.89657, 0.00000
 Zone Sizing Information, MULT_CLASS_1_POD_2_ZN_1_FLR_1 ZN, Heating, 4154.91102, 4154.91102, 0.11889, 0.89657, SAN.DIEGO-BROWN.FIELD.MUNI.AP_CA_USA ANN HTG 99.6% CONDNS DB, 12/21 24:00:00, 3.80000, 5.05843E-003, 477.00000, 128.35963, 0.89657, 0.00000
 Zone Sizing Information, MULT_CLASS_1_POD_3_ZN_1_FLR_1 ZN, Cooling, 24239.82472, 24239.82472, 1.79151, 1.79151, SAN.DIEGO-BROWN.FIELD.MUNI.AP_CA_USA ANN CLG .4% CONDNS DB=>MWB, 8/21 13:50:00, 31.22583, 8.23338E-003, 477.00000, 128.35963, 0.89657, 0.00000
 Zone Sizing Information, MULT_CLASS_1_POD_3_ZN_1_FLR_1 ZN, Heating, 4181.01611, 4181.01611, 0.11964, 0.89657, SAN.DIEGO-BROWN.FIELD.MUNI.AP_CA_USA ANN HTG 99.6% CONDNS DB, 12/21 24:00:00, 3.80000, 5.05843E-003, 477.00000, 128.35963, 0.89657, 0.00000
 Zone Sizing Information, MULT_CLASS_2_POD_1_ZN_1_FLR_1 ZN, Cooling, 21163.16985, 21163.16985, 1.56413, 1.56413, SAN.DIEGO-BROWN.FIELD.MUNI.AP_CA_USA ANN CLG .4% CONDNS DB=>MWB, 8/21 14:40:00, 31.30000, 8.23349E-003, 477.00000, 128.35963, 0.89657, 0.00000
 Zone Sizing Information, MULT_CLASS_2_POD_1_ZN_1_FLR_1 ZN, Heating, 4120.99554, 4120.99554, 0.11792, 0.89657, SAN.DIEGO-BROWN.FIELD.MUNI.AP_CA_USA ANN HTG 99.6% CONDNS DB, 12/21 24:00:00, 3.80000, 5.05843E-003, 477.00000, 128.35963, 0.89657, 0.00000
 Zone Sizing Information, MULT_CLASS_2_POD_2_ZN_1_FLR_1 ZN, Cooling, 21172.88061, 21172.88061, 1.56485, 1.56485, SAN.DIEGO-BROWN.FIELD.MUNI.AP_CA_USA ANN CLG .4% CONDNS DB=>MWB, 8/21 14:40:00, 31.30000, 8.23349E-003, 477.00000, 128.35963, 0.89657, 0.00000
 Zone Sizing Information, MULT_CLASS_2_POD_2_ZN_1_FLR_1 ZN, Heating, 4127.70462, 4127.70462, 0.11811, 0.89657, SAN.DIEGO-BROWN.FIELD.MUNI.AP_CA_USA ANN HTG 99.6% CONDNS DB, 12/21 24:00:00, 3.80000, 5.05843E-003, 477.00000, 128.35963, 0.89657, 0.00000
 Zone Sizing Information, MULT_CLASS_2_POD_3_ZN_1_FLR_1 ZN, Cooling, 14229.07698, 14229.07698, 1.05164, 1.05164, SAN.DIEGO-BROWN.FIELD.MUNI.AP_CA_USA ANN CLG .4% CONDNS DB=>MWB, 8/21 14:50:00, 31.30000, 8.23349E-003, 315.00000, 84.76579, 0.59207, 0.00000
 Zone Sizing Information, MULT_CLASS_2_POD_3_ZN_1_FLR_1 ZN, Heating, 2850.53835, 2850.53835, 8.15662E-002, 0.59207, SAN.DIEGO-BROWN.FIELD.MUNI.AP_CA_USA ANN HTG 99.6% CONDNS DB, 12/21 24:00:00, 3.80000, 5.05843E-003, 315.00000, 84.76579, 0.59207, 0.00000
 Zone Sizing Information, OFFICES_ZN_1_FLR_1 ZN, Cooling, 14968.87507, 14968.87507, 1.10596, 1.10596, SAN.DIEGO-BROWN.FIELD.MUNI.AP_CA_USA ANN CLG .4% CONDNS DB=>MWB, 8/21 13:40:00, 31.15167, 8.23326E-003, 441.00000, 23.73442, 0.19042, 0.00000
 Zone Sizing Information, OFFICES_ZN_1_FLR_1 ZN, Heating, 4040.02683, 4040.02683, 0.11560, 0.19042, SAN.DIEGO-BROWN.FIELD.MUNI.AP_CA_USA ANN HTG 99.6% CONDNS DB, 12/21 22:30:00, 3.80000, 5.05843E-003, 441.00000, 23.73442, 0.19042, 0.00000
! <System Sizing Information>, System Name, Load Type, Peak Load Kind, User Design Capacity, Calc Des Air Flow Rate [m3/s], User Des Air Flow Rate [m3/s], Design Day Name, Date/Time of Peak
 System Sizing Information, CAFETERIA_ZN_1_FLR_1 ZN PSZ-AC_2-7, Cooling, Sensible, 38782.79, 1.96647, 1.96647, SAN.DIEGO-BROWN.FIELD.MUNI.AP_CA_USA ANN CLG .4% CONDNS DB=>MWB, 8/21 05:00:00
 System Sizing Information, CAFETERIA_ZN_1_FLR_1 ZN PSZ-AC_2-7, Heating, Sensible, 81647.01, 1.48819, 1.48819, SAN.DIEGO-BROWN.FIELD.MUNI.AP_CA_USA ANN HTG 99.6% CONDNS DB, 12/21 00:10:00
 System Sizing Information, GYM_ZN_1_FLR_1 ZN PSZ-AC_2-5, Cooling, Sensible, 17523.98, 1.02161, 1.02161, SAN.DIEGO-BROWN.FIELD.MUNI.AP_CA_USA ANN CLG .4% CONDNS DB=>MWB, 8/21 05:00:00
 System Sizing Information, GYM_ZN_1_FLR_1 ZN PSZ-AC_2-5, Heating, Sensible, 29849.44, 0.54407, 0.54407, SAN.DIEGO-BROWN.FIELD.MUNI.AP_CA_USA ANN HTG 99.6% CONDNS DB, 12/21 00:10:00
 System Sizing Information, KITCHEN_ZN_1_FLR_1 ZN PSZ-AC_1-6, Cooling, Sensible, 15348.97, 1.00188, 1.00188, SAN.DIEGO-BROWN.FIELD.MUNI.AP_CA_USA ANN CLG .4% CONDNS DB=>MWB, 8/21 05:00:00
 System Sizing Information, KITCHEN_ZN_1_FLR_1 ZN PSZ-AC_1-6, Heating, Sensible, 13671.05, 0.24918, 0.24918, SAN.DIEGO-BROWN.FIELD.MUNI.AP_CA_USA ANN HTG 99.6% CONDNS DB, 12/21 00:10:00
 System Sizing Information, PVAV_OTHER, Cooling, Sensible, 71240.58, 4.49199, 4.49199, SAN.DIEGO-BROWN.FIELD.MUNI.AP_CA_USA ANN CLG .4% CONDNS DB=>MWB, 8/21 00:00:00
 System Sizing Information, PVAV_OTHER, Heating, Sensible, 13503.29, 1.36373, 1.36373, SAN.DIEGO-BROWN.FIELD.MUNI.AP_CA_USA ANN HTG 99.6% CONDNS DB, 12/21 07:20:00
 System Sizing Information, PVAV_POD_1, Cooling, Sensible, 79660.39, 4.53182, 4.53182, SAN.DIEGO-BROWN.FIELD.MUNI.AP_CA_USA ANN CLG .4% CONDNS DB=>MWB, 8/21 00:00:00
 System Sizing Information, PVAV_POD_1, Heating, Sensible, 23708.81, 2.22382, 2.22382, SAN.DIEGO-BROWN.FIELD.MUNI.AP_CA_USA ANN HTG 99.6% CONDNS DB, 12/21 00:10:00
 System Sizing Information, PVAV_POD_2, Cooling, Sensible, 79339.17, 4.50771, 4.50771, SAN.DIEGO-BROWN.FIELD.MUNI.AP_CA_USA ANN CLG .4% CONDNS DB=>MWB, 8/21 00:00:00
 System Sizing Information, PVAV_POD_2, Heating, Sensible, 23708.81, 2.22382, 2.22382, SAN.DIEGO-BROWN.FIELD.MUNI.AP_CA_USA ANN HTG 99.6% CONDNS DB, 12/21 00:10:00
 System Sizing Information, PVAV_POD_3, Cooling, Sensible, 70034.01, 4.00746, 4.00746, SAN.DIEGO-BROWN.FIELD.MUNI.AP_CA_USA ANN CLG .4% CONDNS DB=>MWB, 8/21 00:00:00
 System Sizing Information, PVAV_POD_3, Heating, Sensible, 20462.50, 1.91933, 1.91933, SAN.DIEGO-BROWN.FIELD.MUNI.AP_CA_USA ANN HTG 99.6% CONDNS DB, 12/21 00:10:00
! <Component Sizing Information>, Component Type, Component Name, Input Field Description, Value
 Component Sizing Information, AirTerminal:SingleDuct:VAV:Reheat, BATH_ZN_1_FLR_1 ZN VAV TERMINAL, Design Size Maximum Air Flow Rate [m3/s], 0.34403
 Component Sizing Information, AirTerminal:SingleDuct:VAV:Reheat, BATH_ZN_1_FLR_1 ZN VAV TERMINAL, Design Size Constant Minimum Air Flow Fraction, 0.42083
 Component Sizing Information, AirTerminal:SingleDuct:VAV:Reheat, BATH_ZN_1_FLR_1 ZN VAV TERMINAL, User-Specified Constant Minimum Air Flow Fraction, 0.20000
 Component Sizing Information, AirTerminal:SingleDuct:VAV:Reheat, BATH_ZN_1_FLR_1 ZN VAV TERMINAL, Design Size Minimum Air Flow Rate [m3/s], 6.88065E-002
 Component Sizing Information, AirTerminal:SingleDuct:VAV:Reheat, BATH_ZN_1_FLR_1 ZN VAV TERMINAL, Design Size Maximum Flow Fraction during Reheat [], 1.00000
 Component Sizing Information, AirTerminal:SingleDuct:VAV:Reheat, BATH_ZN_1_FLR_1 ZN VAV TERMINAL, Design Size Maximum Flow per Zone Floor Area during Reheat [m3/s-m2], 1.81070E-003
 Component Sizing Information, AirTerminal:SingleDuct:VAV:Reheat, BATH_ZN_1_FLR_1 ZN VAV TERMINAL, Design Size Maximum Reheat Water Flow Rate [m3/s], 4.71562E-005
 Component Sizing Information, AirTerminal:SingleDuct:VAV:Reheat, BATH_ZN_1_FLR_1 ZN VAV TERMINAL, Design Size Reheat Coil Sizing Air Volume Flow Rate [m3/s], 6.88065E-002
 Component Sizing Information, AirTerminal:SingleDuct:VAV:Reheat, BATH_ZN_1_FLR_1 ZN VAV TERMINAL, Design Size Reheat Coil Sizing Inlet Air Temperature [C], 12.77778
 Component Sizing Information, AirTerminal:SingleDuct:VAV:Reheat, BATH_ZN_1_FLR_1 ZN VAV TERMINAL, Design Size Reheat Coil Sizing Inlet Air Humidity Ratio [kgWater/kgDryAir], 8.00000E-003
 Component Sizing Information, Coil:Heating:Water, BATH_ZN_1_FLR_1 ZN REHEAT COIL, Design Size Rated Capacity [W], 2155.92479
 Component Sizing Information, Coil:Heating:Water, BATH_ZN_1_FLR_1 ZN REHEAT COIL, Design Size Maximum Water Flow Rate [m3/s], 4.71562E-005
 Component Sizing Information, Coil:Heating:Water, BATH_ZN_1_FLR_1 ZN REHEAT COIL, Design Size U-Factor Times Area Value [W/K], 44.18205
! <Water Heating Coil Capacity Information>,Component Type,Name,Nominal Total Capacity {W}
Water Heating Coil Capacity Information,Coil:Heating:Water,BATH_ZN_1_FLR_1 ZN REHEAT COIL,2038.51
 Component Sizing Information, AirTerminal:SingleDuct:ConstantVolume:NoReheat, CAFETERIA_ZN_1_FLR_1 ZN PSZ-AC_2-7 DIFFUSER, Design Size Maximum Air Flow Rate [m3/s], 1.96647
 Component Sizing Information, AirTerminal:SingleDuct:VAV:Reheat, COMPUTER_CLASS_ZN_1_FLR_1 ZN VAV TERMINAL, Design Size Maximum Air Flow Rate [m3/s], 0.59275
 Component Sizing Information, AirTerminal:SingleDuct:VAV:Reheat, COMPUTER_CLASS_ZN_1_FLR_1 ZN VAV TERMINAL, Design Size Constant Minimum Air Flow Fraction, 0.20826
 Component Sizing Information, AirTerminal:SingleDuct:VAV:Reheat, COMPUTER_CLASS_ZN_1_FLR_1 ZN VAV TERMINAL, User-Specified Constant Minimum Air Flow Fraction, 0.20000
 Component Sizing Information, AirTerminal:SingleDuct:VAV:Reheat, COMPUTER_CLASS_ZN_1_FLR_1 ZN VAV TERMINAL, Design Size Minimum Air Flow Rate [m3/s], 0.11855
 Component Sizing Information, AirTerminal:SingleDuct:VAV:Reheat, COMPUTER_CLASS_ZN_1_FLR_1 ZN VAV TERMINAL, Design Size Maximum Flow Fraction during Reheat [], 0.55535
 Component Sizing Information, AirTerminal:SingleDuct:VAV:Reheat, COMPUTER_CLASS_ZN_1_FLR_1 ZN VAV TERMINAL, Design Size Maximum Flow per Zone Floor Area during Reheat [m3/s-m2], 2.03200E-003
 Component Sizing Information, AirTerminal:SingleDuct:VAV:Reheat, COMPUTER_CLASS_ZN_1_FLR_1 ZN VAV TERMINAL, Design Size Maximum Reheat Water Flow Rate [m3/s], 5.21156E-005
 Component Sizing Information, AirTerminal:SingleDuct:VAV:Reheat, COMPUTER_CLASS_ZN_1_FLR_1 ZN VAV TERMINAL, Design Size Reheat Coil Sizing Air Volume Flow Rate [m3/s], 0.11855
 Component Sizing Information, AirTerminal:SingleDuct:VAV:Reheat, COMPUTER_CLASS_ZN_1_FLR_1 ZN VAV TERMINAL, Design Size Reheat Coil Sizing Inlet Air Temperature [C], 12.77778
 Component Sizing Information, AirTerminal:SingleDuct:VAV:Reheat, COMPUTER_CLASS_ZN_1_FLR_1 ZN VAV TERMINAL, Design Size Reheat Coil Sizing Inlet Air Humidity Ratio [kgWater/kgDryAir], 8.00000E-003
 Component Sizing Information, Coil:Heating:Water, COMPUTER_CLASS_ZN_1_FLR_1 ZN REHEAT COIL, Design Size Rated Capacity [W], 2382.66456
 Component Sizing Information, Coil:Heating:Water, COMPUTER_CLASS_ZN_1_FLR_1 ZN REHEAT COIL, Design Size Maximum Water Flow Rate [m3/s], 5.21156E-005
 Component Sizing Information, Coil:Heating:Water, COMPUTER_CLASS_ZN_1_FLR_1 ZN REHEAT COIL, Design Size U-Factor Times Area Value [W/K], 44.73786
Water Heating Coil Capacity Information,Coil:Heating:Water,COMPUTER_CLASS_ZN_1_FLR_1 ZN REHEAT COIL,2254.12
 Component Sizing Information, AirTerminal:SingleDuct:VAV:Reheat, CORNER_CLASS_1_POD_1_ZN_1_FLR_1 ZN VAV TERMINAL, Design Size Maximum Air Flow Rate [m3/s], 0.45848
 Component Sizing Information, AirTerminal:SingleDuct:VAV:Reheat, CORNER_CLASS_1_POD_1_ZN_1_FLR_1 ZN VAV TERMINAL, Design Size Constant Minimum Air Flow Fraction, 0.16454
 Component Sizing Information, AirTerminal:SingleDuct:VAV:Reheat, CORNER_CLASS_1_POD_1_ZN_1_FLR_1 ZN VAV TERMINAL, User-Specified Constant Minimum Air Flow Fraction, 0.20000
 Component Sizing Information, AirTerminal:SingleDuct:VAV:Reheat, CORNER_CLASS_1_POD_1_ZN_1_FLR_1 ZN VAV TERMINAL, Design Size Minimum Air Flow Rate [m3/s], 9.16966E-002
 Component Sizing Information, AirTerminal:SingleDuct:VAV:Reheat, CORNER_CLASS_1_POD_1_ZN_1_FLR_1 ZN VAV TERMINAL, Design Size Maximum Flow Fraction during Reheat [], 0.43877
 Component Sizing Information, AirTerminal:SingleDuct:VAV:Reheat, CORNER_CLASS_1_POD_1_ZN_1_FLR_1 ZN VAV TERMINAL, Design Size Maximum Flow per Zone Floor Area during Reheat [m3/s-m2], 2.03200E-003
 Component Sizing Information, AirTerminal:SingleDuct:VAV:Reheat, CORNER_CLASS_1_POD_1_ZN_1_FLR_1 ZN VAV TERMINAL, Design Size Maximum Reheat Water Flow Rate [m3/s], 5.40602E-005
 Component Sizing Information, AirTerminal:SingleDuct:VAV:Reheat, CORNER_CLASS_1_POD_1_ZN_1_FLR_1 ZN VAV TERMINAL, Design Size Reheat Coil Sizing Air Volume Flow Rate [m3/s], 9.16966E-002
 Component Sizing Information, AirTerminal:SingleDuct:VAV:Reheat, CORNER_CLASS_1_POD_1_ZN_1_FLR_1 ZN VAV TERMINAL, Design Size Reheat Coil Sizing Inlet Air Temperature [C], 12.77778
 Component Sizing Information, AirTerminal:SingleDuct:VAV:Reheat, CORNER_CLASS_1_POD_1_ZN_1_FLR_1 ZN VAV TERMINAL, Design Size Reheat Coil Sizing Inlet Air Humidity Ratio [kgWater/kgDryAir], 8.00000E-003
 Component Sizing Information, Coil:Heating:Water, CORNER_CLASS_1_POD_1_ZN_1_FLR_1 ZN REHEAT COIL, Design Size Rated Capacity [W], 2471.56698
 Component Sizing Information, Coil:Heating:Water, CORNER_CLASS_1_POD_1_ZN_1_FLR_1 ZN REHEAT COIL, Design Size Maximum Water Flow Rate [m3/s], 5.40602E-005
 Component Sizing Information, Coil:Heating:Water, CORNER_CLASS_1_POD_1_ZN_1_FLR_1 ZN REHEAT COIL, Design Size U-Factor Times Area Value [W/K], 48.82306
Water Heating Coil Capacity Information,Coil:Heating:Water,CORNER_CLASS_1_POD_1_ZN_1_FLR_1 ZN REHEAT COIL,2337.46
 Component Sizing Information, AirTerminal:SingleDuct:VAV:Reheat, CORNER_CLASS_1_POD_2_ZN_1_FLR_1 ZN VAV TERMINAL, Design Size Maximum Air Flow Rate [m3/s], 0.45521
 Component Sizing Information, AirTerminal:SingleDuct:VAV:Reheat, CORNER_CLASS_1_POD_2_ZN_1_FLR_1 ZN VAV TERMINAL, Design Size Constant Minimum Air Flow Fraction, 0.16572
 Component Sizing Information, AirTerminal:SingleDuct:VAV:Reheat, CORNER_CLASS_1_POD_2_ZN_1_FLR_1 ZN VAV TERMINAL, User-Specified Constant Minimum Air Flow Fraction, 0.20000
 Component Sizing Information, AirTerminal:SingleDuct:VAV:Reheat, CORNER_CLASS_1_POD_2_ZN_1_FLR_1 ZN VAV TERMINAL, Design Size Minimum Air Flow Rate [m3/s], 9.10426E-002
 Component Sizing Information, AirTerminal:SingleDuct:VAV:Reheat, CORNER_CLASS_1_POD_2_ZN_1_FLR_1 ZN VAV TERMINAL, Design Size Maximum Flow Fraction during Reheat [], 0.44192
 Component Sizing Information, AirTerminal:SingleDuct:VAV:Reheat, CORNER_CLASS_1_POD_2_ZN_1_FLR_1 ZN VAV TERMINAL, Design Size Maximum Flow per Zone Floor Area during Reheat [m3/s-m2], 2.03200E-003
 Component Sizing Information, AirTerminal:SingleDuct:VAV:Reheat, CORNER_CLASS_1_POD_2_ZN_1_FLR_1 ZN VAV TERMINAL, Design Size Maximum Reheat Water Flow Rate [m3/s], 5.34709E-005
 Component Sizing Information, AirTerminal:SingleDuct:VAV:Reheat, CORNER_CLASS_1_POD_2_ZN_1_FLR_1 ZN VAV TERMINAL, Design Size Reheat Coil Sizing Air Volume Flow Rate [m3/s], 9.10426E-002
 Component Sizing Information, AirTerminal:SingleDuct:VAV:Reheat, CORNER_CLASS_1_POD_2_ZN_1_FLR_1 ZN VAV TERMINAL, Design Size Reheat Coil Sizing Inlet Air Temperature [C], 12.77778
 Component Sizing Information, AirTerminal:SingleDuct:VAV:Reheat, CORNER_CLASS_1_POD_2_ZN_1_FLR_1 ZN VAV TERMINAL, Design Size Reheat Coil Sizing Inlet Air Humidity Ratio [kgWater/kgDryAir], 8.00000E-003
 Component Sizing Information, Coil:Heating:Water, CORNER_CLASS_1_POD_2_ZN_1_FLR_1 ZN REHEAT COIL, Design Size Rated Capacity [W], 2444.62584
 Component Sizing Information, Coil:Heating:Water, CORNER_CLASS_1_POD_2_ZN_1_FLR_1 ZN REHEAT COIL, Design Size Maximum Water Flow Rate [m3/s], 5.34709E-005
 Component Sizing Information, Coil:Heating:Water, CORNER_CLASS_1_POD_2_ZN_1_FLR_1 ZN REHEAT COIL, Design Size U-Factor Times Area Value [W/K], 48.25131
Water Heating Coil Capacity Information,Coil:Heating:Water,CORNER_CLASS_1_POD_2_ZN_1_FLR_1 ZN REHEAT COIL,2311.99
 Component Sizing Information, AirTerminal:SingleDuct:VAV:Reheat, CORNER_CLASS_1_POD_3_ZN_1_FLR_1 ZN VAV TERMINAL, Design Size Maximum Air Flow Rate [m3/s], 0.45555
 Component Sizing Information, AirTerminal:SingleDuct:VAV:Reheat, CORNER_CLASS_1_POD_3_ZN_1_FLR_1 ZN VAV TERMINAL, Design Size Constant Minimum Air Flow Fraction, 0.16560
 Component Sizing Information, AirTerminal:SingleDuct:VAV:Reheat, CORNER_CLASS_1_POD_3_ZN_1_FLR_1 ZN VAV TERMINAL, User-Specified Constant Minimum Air Flow Fraction, 0.20000
 Component Sizing Information, AirTerminal:SingleDuct:VAV:Reheat, CORNER_CLASS_1_POD_3_ZN_1_FLR_1 ZN VAV TERMINAL, Design Size Minimum Air Flow Rate [m3/s], 9.11103E-002
 Component Sizing Information, AirTerminal:SingleDuct:VAV:Reheat, CORNER_CLASS_1_POD_3_ZN_1_FLR_1 ZN VAV TERMINAL, Design Size Maximum Flow Fraction during Reheat [], 0.44159
 Component Sizing Information, AirTerminal:SingleDuct:VAV:Reheat, CORNER_CLASS_1_POD_3_ZN_1_FLR_1 ZN VAV TERMINAL, Design Size Maximum Flow per Zone Floor Area during Reheat [m3/s-m2], 2.03200E-003
 Component Sizing Information, AirTerminal:SingleDuct:VAV:Reheat, CORNER_CLASS_1_POD_3_ZN_1_FLR_1 ZN VAV TERMINAL, Design Size Maximum Reheat Water Flow Rate [m3/s], 5.35256E-005
 Component Sizing Information, AirTerminal:SingleDuct:VAV:Reheat, CORNER_CLASS_1_POD_3_ZN_1_FLR_1 ZN VAV TERMINAL, Design Size Reheat Coil Sizing Air Volume Flow Rate [m3/s], 9.11103E-002
 Component Sizing Information, AirTerminal:SingleDuct:VAV:Reheat, CORNER_CLASS_1_POD_3_ZN_1_FLR_1 ZN VAV TERMINAL, Design Size Reheat Coil Sizing Inlet Air Temperature [C], 12.77778
 Component Sizing Information, AirTerminal:SingleDuct:VAV:Reheat, CORNER_CLASS_1_POD_3_ZN_1_FLR_1 ZN VAV TERMINAL, Design Size Reheat Coil Sizing Inlet Air Humidity Ratio [kgWater/kgDryAir], 8.00000E-003
 Component Sizing Information, Coil:Heating:Water, CORNER_CLASS_1_POD_3_ZN_1_FLR_1 ZN REHEAT COIL, Design Size Rated Capacity [W], 2447.12448
 Component Sizing Information, Coil:Heating:Water, CORNER_CLASS_1_POD_3_ZN_1_FLR_1 ZN REHEAT COIL, Design Size Maximum Water Flow Rate [m3/s], 5.35256E-005
 Component Sizing Information, Coil:Heating:Water, CORNER_CLASS_1_POD_3_ZN_1_FLR_1 ZN REHEAT COIL, Design Size U-Factor Times Area Value [W/K], 48.30350
Water Heating Coil Capacity Information,Coil:Heating:Water,CORNER_CLASS_1_POD_3_ZN_1_FLR_1 ZN REHEAT COIL,2314.35
 Component Sizing Information, AirTerminal:SingleDuct:VAV:Reheat, CORNER_CLASS_2_POD_1_ZN_1_FLR_1 ZN VAV TERMINAL, Design Size Maximum Air Flow Rate [m3/s], 0.42363
 Component Sizing Information, AirTerminal:SingleDuct:VAV:Reheat, CORNER_CLASS_2_POD_1_ZN_1_FLR_1 ZN VAV TERMINAL, Design Size Constant Minimum Air Flow Fraction, 0.17807
 Component Sizing Information, AirTerminal:SingleDuct:VAV:Reheat, CORNER_CLASS_2_POD_1_ZN_1_FLR_1 ZN VAV TERMINAL, User-Specified Constant Minimum Air Flow Fraction, 0.20000
 Component Sizing Information, AirTerminal:SingleDuct:VAV:Reheat, CORNER_CLASS_2_POD_1_ZN_1_FLR_1 ZN VAV TERMINAL, Design Size Minimum Air Flow Rate [m3/s], 8.47268E-002
 Component Sizing Information, AirTerminal:SingleDuct:VAV:Reheat, CORNER_CLASS_2_POD_1_ZN_1_FLR_1 ZN VAV TERMINAL, Design Size Maximum Flow Fraction during Reheat [], 0.47486
 Component Sizing Information, AirTerminal:SingleDuct:VAV:Reheat, CORNER_CLASS_2_POD_1_ZN_1_FLR_1 ZN VAV TERMINAL, Design Size Maximum Flow per Zone Floor Area during Reheat [m3/s-m2], 2.03200E-003
 Component Sizing Information, AirTerminal:SingleDuct:VAV:Reheat, CORNER_CLASS_2_POD_1_ZN_1_FLR_1 ZN VAV TERMINAL, Design Size Maximum Reheat Water Flow Rate [m3/s], 5.19423E-005
 Component Sizing Information, AirTerminal:SingleDuct:VAV:Reheat, CORNER_CLASS_2_POD_1_ZN_1_FLR_1 ZN VAV TERMINAL, Design Size Reheat Coil Sizing Air Volume Flow Rate [m3/s], 8.47268E-002
 Component Sizing Information, AirTerminal:SingleDuct:VAV:Reheat, CORNER_CLASS_2_POD_1_ZN_1_FLR_1 ZN VAV TERMINAL, Design Size Reheat Coil Sizing Inlet Air Temperature [C], 12.77778
 Component Sizing Information, AirTerminal:SingleDuct:VAV:Reheat, CORNER_CLASS_2_POD_1_ZN_1_FLR_1 ZN VAV TERMINAL, Design Size Reheat Coil Sizing Inlet Air Humidity Ratio [kgWater/kgDryAir], 8.00000E-003
 Component Sizing Information, Coil:Heating:Water, CORNER_CLASS_2_POD_1_ZN_1_FLR_1 ZN REHEAT COIL, Design Size Rated Capacity [W], 2374.74095
 Component Sizing Information, Coil:Heating:Water, CORNER_CLASS_2_POD_1_ZN_1_FLR_1 ZN REHEAT COIL, Design Size Maximum Water Flow Rate [m3/s], 5.19423E-005
 Component Sizing Information, Coil:Heating:Water, CORNER_CLASS_2_POD_1_ZN_1_FLR_1 ZN REHEAT COIL, Design Size U-Factor Times Area Value [W/K], 47.32147
Water Heating Coil Capacity Information,Coil:Heating:Water,CORNER_CLASS_2_POD_1_ZN_1_FLR_1 ZN REHEAT COIL,2245.81
 Component Sizing Information, AirTerminal:SingleDuct:VAV:Reheat, CORNER_CLASS_2_POD_2_ZN_1_FLR_1 ZN VAV TERMINAL, Design Size Maximum Air Flow Rate [m3/s], 0.42380
 Component Sizing Information, AirTerminal:SingleDuct:VAV:Reheat, CORNER_CLASS_2_POD_2_ZN_1_FLR_1 ZN VAV TERMINAL, Design Size Constant Minimum Air Flow Fraction, 0.17800
 Component Sizing Information, AirTerminal:SingleDuct:VAV:Reheat, CORNER_CLASS_2_POD_2_ZN_1_FLR_1 ZN VAV TERMINAL, User-Specified Constant Minimum Air Flow Fraction, 0.20000
 Component Sizing Information, AirTerminal:SingleDuct:VAV:Reheat, CORNER_CLASS_2_POD_2_ZN_1_FLR_1 ZN VAV TERMINAL, Design Size Minimum Air Flow Rate [m3/s], 8.47609E-002
 Component Sizing Information, AirTerminal:SingleDuct:VAV:Reheat, CORNER_CLASS_2_POD_2_ZN_1_FLR_1 ZN VAV TERMINAL, Design Size Maximum Flow Fraction during Reheat [], 0.47467
 Component Sizing Information, AirTerminal:SingleDuct:VAV:Reheat, CORNER_CLASS_2_POD_2_ZN_1_FLR_1 ZN VAV TERMINAL, Design Size Maximum Flow per Zone Floor Area during Reheat [m3/s-m2], 2.03200E-003
 Component Sizing Information, AirTerminal:SingleDuct:VAV:Reheat, CORNER_CLASS_2_POD_2_ZN_1_FLR_1 ZN VAV TERMINAL, Design Size Maximum Reheat Water Flow Rate [m3/s], 5.19819E-005
 Component Sizing Information, AirTerminal:SingleDuct:VAV:Reheat, CORNER_CLASS_2_POD_2_ZN_1_FLR_1 ZN VAV TERMINAL, Design Size Reheat Coil Sizing Air Volume Flow Rate [m3/s], 8.47609E-002
 Component Sizing Information, AirTerminal:SingleDuct:VAV:Reheat, CORNER_CLASS_2_POD_2_ZN_1_FLR_1 ZN VAV TERMINAL, Design Size Reheat Coil Sizing Inlet Air Temperature [C], 12.77778
 Component Sizing Information, AirTerminal:SingleDuct:VAV:Reheat, CORNER_CLASS_2_POD_2_ZN_1_FLR_1 ZN VAV TERMINAL, Design Size Reheat Coil Sizing Inlet Air Humidity Ratio [kgWater/kgDryAir], 8.00000E-003
 Component Sizing Information, Coil:Heating:Water, CORNER_CLASS_2_POD_2_ZN_1_FLR_1 ZN REHEAT COIL, Design Size Rated Capacity [W], 2376.55059
 Component Sizing Information, Coil:Heating:Water, CORNER_CLASS_2_POD_2_ZN_1_FLR_1 ZN REHEAT COIL, Design Size Maximum Water Flow Rate [m3/s], 5.19819E-005
 Component Sizing Information, Coil:Heating:Water, CORNER_CLASS_2_POD_2_ZN_1_FLR_1 ZN REHEAT COIL, Design Size U-Factor Times Area Value [W/K], 47.36146
Water Heating Coil Capacity Information,Coil:Heating:Water,CORNER_CLASS_2_POD_2_ZN_1_FLR_1 ZN REHEAT COIL,2247.52
 Component Sizing Information, AirTerminal:SingleDuct:VAV:Reheat, CORNER_CLASS_2_POD_3_ZN_1_FLR_1 ZN VAV TERMINAL, Design Size Maximum Air Flow Rate [m3/s], 0.42681
[...]
 Warmup Convergence Information,CORRIDOR_POD_3_ZN_1_FLR_1 ZN,SizingPeriod: SAN.DIEGO-BROWN.FIELD.MUNI.AP_CA_USA ANN HTG 99.6% CONDNS DB HVAC Sizing Pass 1,5.3804945775E-002,8.2722610769E-002,Pass,Pass,0.2201254951,0.4063293747,Pass,Pass
 Warmup Convergence Information,GYM_ZN_1_FLR_1 ZN,SizingPeriod: SAN.DIEGO-BROWN.FIELD.MUNI.AP_CA_USA ANN HTG 99.6% CONDNS DB HVAC Sizing Pass 1,3.8795634453E-002,0.2423364256,Pass,Pass,6.6319018990E-002,0.5638941397,Pass,Pass
 Warmup Convergence Information,KITCHEN_ZN_1_FLR_1 ZN,SizingPeriod: SAN.DIEGO-BROWN.FIELD.MUNI.AP_CA_USA ANN HTG 99.6% CONDNS DB HVAC Sizing Pass 1,8.4405277383E-003,2.0851074919E-002,Pass,Pass,0.0000000000,0.0000000000,Pass,Pass
 Warmup Convergence Information,LIBRARY_MEDIA_CENTER_ZN_1_FLR_1 ZN,SizingPeriod: SAN.DIEGO-BROWN.FIELD.MUNI.AP_CA_USA ANN HTG 99.6% CONDNS DB HVAC Sizing Pass 1,7.0327962394E-002,0.1082848448,Pass,Pass,0.2348096737,0.4257133337,Pass,Pass
 Warmup Convergence Information,LOBBY_ZN_1_FLR_1 ZN,SizingPeriod: SAN.DIEGO-BROWN.FIELD.MUNI.AP_CA_USA ANN HTG 99.6% CONDNS DB HVAC Sizing Pass 1,0.1303130452,0.2011046348,Pass,Pass,0.2159928204,0.4019587444,Pass,Pass
 Warmup Convergence Information,MAIN_CORRIDOR_ZN_1_FLR_1 ZN,SizingPeriod: SAN.DIEGO-BROWN.FIELD.MUNI.AP_CA_USA ANN HTG 99.6% CONDNS DB HVAC Sizing Pass 1,4.6742879081E-002,7.1802953954E-002,Pass,Pass,0.2306149200,0.4199475166,Pass,Pass
 Warmup Convergence Information,MECH_ZN_1_FLR_1 ZN,SizingPeriod: SAN.DIEGO-BROWN.FIELD.MUNI.AP_CA_USA ANN HTG 99.6% CONDNS DB HVAC Sizing Pass 1,4.6023550410E-002,5.5559587354E-002,Pass,Pass,0.3034312712,0.6138259616,Pass,Pass
 Warmup Convergence Information,MULT_CLASS_1_POD_1_ZN_1_FLR_1 ZN,SizingPeriod: SAN.DIEGO-BROWN.FIELD.MUNI.AP_CA_USA ANN HTG 99.6% CONDNS DB HVAC Sizing Pass 1,8.0352106832E-002,0.1239194398,Pass,Pass,0.2172177253,0.4026573226,Pass,Pass
 Warmup Convergence Information,MULT_CLASS_1_POD_2_ZN_1_FLR_1 ZN,SizingPeriod: SAN.DIEGO-BROWN.FIELD.MUNI.AP_CA_USA ANN HTG 99.6% CONDNS DB HVAC Sizing Pass 1,7.7201606281E-002,0.1189972802,Pass,Pass,0.2181519293,0.4036606539,Pass,Pass
 Warmup Convergence Information,MULT_CLASS_1_POD_3_ZN_1_FLR_1 ZN,SizingPeriod: SAN.DIEGO-BROWN.FIELD.MUNI.AP_CA_USA ANN HTG 99.6% CONDNS DB HVAC Sizing Pass 1,7.7809696257E-002,0.1199628832,Pass,Pass,0.2177020330,0.4031759491,Pass,Pass
 Warmup Convergence Information,MULT_CLASS_2_POD_1_ZN_1_FLR_1 ZN,SizingPeriod: SAN.DIEGO-BROWN.FIELD.MUNI.AP_CA_USA ANN HTG 99.6% CONDNS DB HVAC Sizing Pass 1,7.5714085145E-002,0.1166691929,Pass,Pass,0.2184366677,0.4039582994,Pass,Pass
 Warmup Convergence Information,MULT_CLASS_2_POD_2_ZN_1_FLR_1 ZN,SizingPeriod: SAN.DIEGO-BROWN.FIELD.MUNI.AP_CA_USA ANN HTG 99.6% CONDNS DB HVAC Sizing Pass 1,7.5979735610E-002,0.1170806894,Pass,Pass,0.2184733672,0.4040024308,Pass,Pass
 Warmup Convergence Information,MULT_CLASS_2_POD_3_ZN_1_FLR_1 ZN,SizingPeriod: SAN.DIEGO-BROWN.FIELD.MUNI.AP_CA_USA ANN HTG 99.6% CONDNS DB HVAC Sizing Pass 1,8.0349070432E-002,0.1239202873,Pass,Pass,0.2169713626,0.4024384695,Pass,Pass
 Warmup Convergence Information,OFFICES_ZN_1_FLR_1 ZN,SizingPeriod: SAN.DIEGO-BROWN.FIELD.MUNI.AP_CA_USA ANN HTG 99.6% CONDNS DB HVAC Sizing Pass 1,8.2808609369E-002,0.1271556030,Pass,Pass,0.2287735218,0.4169499166,Pass,Pass
Environment,SAN.DIEGO-BROWN.FIELD.MUNI.AP_CA_USA ANN CLG .4% CONDNS DB=>MWB,SizingPeriod:DesignDay,08/21,08/21,SummerDesignDay,1,N/A,N/A,N/A,N/A,N/A,N/A,Clark and Allen
Environment:Daylight Saving,No,SizingPeriod:DesignDay
Environment:Design Day Data,31.30,8.90,DefaultMultipliers,Wetbulb,18.40,{C},99429,280,4.1,0.00,No,No
Environment:Design Day Misc,233,1106.3,0.2000,0.1216,1.0,-3.33,12.4,ASHRAETau
 Component Sizing Information, PlantLoop, HOT WATER LOOP, Maximum Loop Flow Rate [m3/s], 3.11961E-003
 Component Sizing Information, PlantLoop, HOT WATER LOOP, Plant Loop Volume [m3], 0.37435
 Component Sizing Information, PlantLoop, MAIN SERVICE WATER LOOP, Maximum Loop Flow Rate [m3/s], 9.58971E-004
 Component Sizing Information, PlantLoop, MAIN SERVICE WATER LOOP, Plant Loop Volume [m3], 0.11508
 Component Sizing Information, PlantLoop, SERVICE WATER LOOP, Maximum Loop Flow Rate [m3/s], 6.30902E-005
 Component Sizing Information, PlantLoop, SERVICE WATER LOOP, Plant Loop Volume [m3], 7.57082E-003
 Component Sizing Information, HeatExchanger:FluidToFluid, HX FOR BOOSTER WATER HEATING, Loop Supply Side Design Fluid Flow Rate [m3/s], 6.30902E-005
 Component Sizing Information, HeatExchanger:FluidToFluid, HX FOR BOOSTER WATER HEATING, Loop Demand Side Design Fluid Flow Rate [m3/s], 6.30902E-005
 Component Sizing Information, HeatExchanger:FluidToFluid, HX FOR BOOSTER WATER HEATING, Heat Exchanger U-Factor Times Area Value [W/C], 76.88358
 Component Sizing Information, HeatExchanger:FluidToFluid, HX FOR BOOSTER WATER HEATING, Loop-to-loop Temperature Difference Used to Size Heat Exchanger U-Factor Times Area Value [C], 17.22222
 Component Sizing Information, WaterHeater:Mixed, 6.0GAL ELECTRICITY BOOSTER WATER HEATER - 20KBTU/HR, Use Side Design Flow Rate [m3/s], 6.30902E-005
 Component Sizing Information, Pump:VariableSpeed, BOOSTER WATER LOOP PUMP, Design Flow Rate [m3/s], 6.30902E-005
 Component Sizing Information, PlantComponent:TemperatureSource, MAINS WATER MAKEUP FOR SWH BOOSTER, Design Size Design Fluid Flow Rate [m3/s], 9.58971E-004
 Component Sizing Information, Boiler:HotWater, BOILER, Design Size Nominal Capacity [W], 142624.81765
 Component Sizing Information, Boiler:HotWater, BOILER, Design Size Design Water Flow Rate [m3/s], 3.11961E-003
 Component Sizing Information, Pump:VariableSpeed, HOT WATER LOOP PUMP, Design Flow Rate [m3/s], 3.11961E-003
 Component Sizing Information, Pump:VariableSpeed, HOT WATER LOOP PUMP, Design Power Consumption [W], 796.98483
 Component Sizing Information, WaterHeater:Mixed, 200GAL NATURAL GAS WATER HEATER - 200KBTU/HR, Use Side Design Flow Rate [m3/s], 9.58971E-004
 Component Sizing Information, Pump:ConstantSpeed, MAIN SERVICE WATER LOOP CIRCULATOR PUMP, Design Flow Rate [m3/s], 9.58971E-004
 Component Sizing Information, Pump:ConstantSpeed, MAIN SERVICE WATER LOOP CIRCULATOR PUMP, Design Power Consumption [W], 122.49830
Environment,SAN.DIEGO-BROWN.FIELD.MUNI.AP_CA_USA ANN HTG 99.6% CONDNS DB,SizingPeriod:DesignDay,12/21,12/21,WinterDesignDay,1,N/A,N/A,N/A,N/A,N/A,N/A,Clark and Allen
Environment:Daylight Saving,No,SizingPeriod:DesignDay
Environment:Design Day Data,3.80,0.00,DefaultMultipliers,Wetbulb,3.80,{C},99429,120,3.0,0.00,No,No
Environment:Design Day Misc,355,1232.8,0.1424,5.7719E-002,1.0,2.45,-23.5,ASHRAEClearSky
Environment,SAN.DIEGO-BROWN.FIELD.MUNI.AP_CA_USA ANN CLG .4% CONDNS DB=>MWB HVAC Sizing Pass 1,SizingPeriod:DesignDay,08/21,08/21,SummerDesignDay,1,N/A,N/A,N/A,N/A,N/A,N/A,Clark and Allen
Environment:Daylight Saving,No,SizingPeriod:DesignDay
Environment:Design Day Data,31.30,8.90,DefaultMultipliers,Wetbulb,18.40,{C},99429,280,4.1,0.00,No,No
Environment:Design Day Misc,233,1106.3,0.2000,0.1216,1.0,-3.33,12.4,ASHRAETau
Environment,SAN.DIEGO-BROWN.FIELD.MUNI.AP_CA_USA ANN HTG 99.6% CONDNS DB HVAC Sizing Pass 1,SizingPeriod:DesignDay,12/21,12/21,WinterDesignDay,1,N/A,N/A,N/A,N/A,N/A,N/A,Clark and Allen
Environment:Daylight Saving,No,SizingPeriod:DesignDay
Environment:Design Day Data,3.80,0.00,DefaultMultipliers,Wetbulb,3.80,{C},99429,120,3.0,0.00,No,No
Environment:Design Day Misc,355,1232.8,0.1424,5.7719E-002,1.0,2.45,-23.5,ASHRAEClearSky
Environment,SAN.DIEGO-BROWN.FIELD.MUNI.AP_CA_USA ANN CLG .4% CONDNS DB=>MWB,SizingPeriod:DesignDay,08/21,08/21,SummerDesignDay,1,N/A,N/A,N/A,N/A,N/A,N/A,Clark and Allen
Environment:Daylight Saving,No,SizingPeriod:DesignDay
Environment:Design Day Data,31.30,8.90,DefaultMultipliers,Wetbulb,18.40,{C},99429,280,4.1,0.00,No,No
Environment:Design Day Misc,233,1106.3,0.2000,0.1216,1.0,-3.33,12.4,ASHRAETau
Environment:WarmupDays,  6
 Warmup Convergence Information,BATH_ZN_1_FLR_1 ZN,SizingPeriod: SAN.DIEGO-BROWN.FIELD.MUNI.AP_CA_USA ANN CLG .4% CONDNS DB=>MWB,0.1323590755,0.2183980482,Pass,Pass,0.3516604372,0.7016412539,Pass,Pass
 Warmup Convergence Information,CAFETERIA_ZN_1_FLR_1 ZN,SizingPeriod: SAN.DIEGO-BROWN.FIELD.MUNI.AP_CA_USA ANN CLG .4% CONDNS DB=>MWB,6.8250031365E-002,0.3360857063,Pass,Pass,2.6045312896E-002,0.1151563725,Pass,Pass
 Warmup Convergence Information,COMPUTER_CLASS_ZN_1_FLR_1 ZN,SizingPeriod: SAN.DIEGO-BROWN.FIELD.MUNI.AP_CA_USA ANN CLG .4% CONDNS DB=>MWB,0.1810110778,0.3188383511,Pass,Pass,0.3048181040,0.5913847663,Pass,Pass
 Warmup Convergence Information,CORNER_CLASS_1_POD_1_ZN_1_FLR_1 ZN,SizingPeriod: SAN.DIEGO-BROWN.FIELD.MUNI.AP_CA_USA ANN CLG .4% CONDNS DB=>MWB,0.2110633341,0.3538996141,Pass,Pass,0.2766920158,0.5312279435,Pass,Pass
 Warmup Convergence Information,CORNER_CLASS_1_POD_2_ZN_1_FLR_1 ZN,SizingPeriod: SAN.DIEGO-BROWN.FIELD.MUNI.AP_CA_USA ANN CLG .4% CONDNS DB=>MWB,0.2089661784,0.3525413352,Pass,Pass,0.2779411198,0.5339003027,Pass,Pass
 Warmup Convergence Information,CORNER_CLASS_1_POD_3_ZN_1_FLR_1 ZN,SizingPeriod: SAN.DIEGO-BROWN.FIELD.MUNI.AP_CA_USA ANN CLG .4% CONDNS DB=>MWB,0.2088103075,0.3524126871,Pass,Pass,0.2778413182,0.5335123970,Pass,Pass
 Warmup Convergence Information,CORNER_CLASS_2_POD_1_ZN_1_FLR_1 ZN,SizingPeriod: SAN.DIEGO-BROWN.FIELD.MUNI.AP_CA_USA ANN CLG .4% CONDNS DB=>MWB,0.1929162350,0.3310151744,Pass,Pass,0.2796913798,0.5364651198,Pass,Pass
 Warmup Convergence Information,CORNER_CLASS_2_POD_2_ZN_1_FLR_1 ZN,SizingPeriod: SAN.DIEGO-BROWN.FIELD.MUNI.AP_CA_USA ANN CLG .4% CONDNS DB=>MWB,0.1930327042,0.3310927805,Pass,Pass,0.2796639892,0.5363274578,Pass,Pass
 Warmup Convergence Information,CORNER_CLASS_2_POD_3_ZN_1_FLR_1 ZN,SizingPeriod: SAN.DIEGO-BROWN.FIELD.MUNI.AP_CA_USA ANN CLG .4% CONDNS DB=>MWB,0.1946191022,0.3321688683,Pass,Pass,0.2788431760,0.5347038311,Pass,Pass
 Warmup Convergence Information,CORRIDOR_POD_1_ZN_1_FLR_1 ZN,SizingPeriod: SAN.DIEGO-BROWN.FIELD.MUNI.AP_CA_USA ANN CLG .4% CONDNS DB=>MWB,0.1193291802,0.2012969539,Pass,Pass,0.3652795619,0.7456604844,Pass,Pass
 Warmup Convergence Information,CORRIDOR_POD_2_ZN_1_FLR_1 ZN,SizingPeriod: SAN.DIEGO-BROWN.FIELD.MUNI.AP_CA_USA ANN CLG .4% CONDNS DB=>MWB,0.1194147419,0.2012019959,Pass,Pass,0.3661777146,0.7481428548,Pass,Pass
 Warmup Convergence Information,CORRIDOR_POD_3_ZN_1_FLR_1 ZN,SizingPeriod: SAN.DIEGO-BROWN.FIELD.MUNI.AP_CA_USA ANN CLG .4% CONDNS DB=>MWB,0.1207126343,0.2033301888,Pass,Pass,0.3662948209,0.7483546627,Pass,Pass
 Warmup Convergence Information,GYM_ZN_1_FLR_1 ZN,SizingPeriod: SAN.DIEGO-BROWN.FIELD.MUNI.AP_CA_USA ANN CLG .4% CONDNS DB=>MWB,6.1496556863E-002,0.2341917216,Pass,Pass,2.0576429359E-002,0.1357139462,Pass,Pass
 Warmup Convergence Information,KITCHEN_ZN_1_FLR_1 ZN,SizingPeriod: SAN.DIEGO-BROWN.FIELD.MUNI.AP_CA_USA ANN CLG .4% CONDNS DB=>MWB,0.1205914628,0.3612009103,Pass,Pass,1.6217130387E-002,7.9243937213E-002,Pass,Pass
 Warmup Convergence Information,LIBRARY_MEDIA_CENTER_ZN_1_FLR_1 ZN,SizingPeriod: SAN.DIEGO-BROWN.FIELD.MUNI.AP_CA_USA ANN CLG .4% CONDNS DB=>MWB,0.1569590119,0.2725343969,Pass,Pass,0.3298976577,0.6628807772,Pass,Pass
 Warmup Convergence Information,LOBBY_ZN_1_FLR_1 ZN,SizingPeriod: SAN.DIEGO-BROWN.FIELD.MUNI.AP_CA_USA ANN CLG .4% CONDNS DB=>MWB,0.1275557849,0.2198276963,Pass,Pass,0.3327995044,0.6458767495,Pass,Pass
 Warmup Convergence Information,MAIN_CORRIDOR_ZN_1_FLR_1 ZN,SizingPeriod: SAN.DIEGO-BROWN.FIELD.MUNI.AP_CA_USA ANN CLG .4% CONDNS DB=>MWB,0.1042222653,0.1661635958,Pass,Pass,0.3234484747,0.6264042753,Pass,Pass
 Warmup Convergence Information,MECH_ZN_1_FLR_1 ZN,SizingPeriod: SAN.DIEGO-BROWN.FIELD.MUNI.AP_CA_USA ANN CLG .4% CONDNS DB=>MWB,0.1331432239,0.2063618315,Pass,Pass,0.2810231010,0.5783835920,Pass,Pass
 Warmup Convergence Information,MULT_CLASS_1_POD_1_ZN_1_FLR_1 ZN,SizingPeriod: SAN.DIEGO-BROWN.FIELD.MUNI.AP_CA_USA ANN CLG .4% CONDNS DB=>MWB,0.1677528606,0.3035613429,Pass,Pass,0.2841452910,0.5496078786,Pass,Pass
 Warmup Convergence Information,MULT_CLASS_1_POD_2_ZN_1_FLR_1 ZN,SizingPeriod: SAN.DIEGO-BROWN.FIELD.MUNI.AP_CA_USA ANN CLG .4% CONDNS DB=>MWB,0.1681664499,0.3018123551,Pass,Pass,0.2851713167,0.5527901967,Pass,Pass
 Warmup Convergence Information,MULT_CLASS_1_POD_3_ZN_1_FLR_1 ZN,SizingPeriod: SAN.DIEGO-BROWN.FIELD.MUNI.AP_CA_USA ANN CLG .4% CONDNS DB=>MWB,0.1687730831,0.3026049161,Pass,Pass,0.2852053595,0.5529725839,Pass,Pass
 Warmup Convergence Information,MULT_CLASS_2_POD_1_ZN_1_FLR_1 ZN,SizingPeriod: SAN.DIEGO-BROWN.FIELD.MUNI.AP_CA_USA ANN CLG .4% CONDNS DB=>MWB,0.1597934614,0.2795368496,Pass,Pass,0.2989976981,0.5775689677,Pass,Pass
 Warmup Convergence Information,MULT_CLASS_2_POD_2_ZN_1_FLR_1 ZN,SizingPeriod: SAN.DIEGO-BROWN.FIELD.MUNI.AP_CA_USA ANN CLG .4% CONDNS DB=>MWB,0.1598066850,0.2794704016,Pass,Pass,0.2988723815,0.5772502862,Pass,Pass
 Warmup Convergence Information,MULT_CLASS_2_POD_3_ZN_1_FLR_1 ZN,SizingPeriod: SAN.DIEGO-BROWN.FIELD.MUNI.AP_CA_USA ANN CLG .4% CONDNS DB=>MWB,0.1601611043,0.2802699929,Pass,Pass,0.2961177242,0.5721761433,Pass,Pass
 Warmup Convergence Information,OFFICES_ZN_1_FLR_1 ZN,SizingPeriod: SAN.DIEGO-BROWN.FIELD.MUNI.AP_CA_USA ANN CLG .4% CONDNS DB=>MWB,0.1600750374,0.2721542899,Pass,Pass,0.3358221135,0.6578138787,Pass,Pass
Environment,SAN.DIEGO-BROWN.FIELD.MUNI.AP_CA_USA ANN HTG 99.6% CONDNS DB,SizingPeriod:DesignDay,12/21,12/21,WinterDesignDay,1,N/A,N/A,N/A,N/A,N/A,N/A,Clark and Allen
Environment:Daylight Saving,No,SizingPeriod:DesignDay
Environment:Design Day Data,3.80,0.00,DefaultMultipliers,Wetbulb,3.80,{C},99429,120,3.0,0.00,No,No
Environment:Design Day Misc,355,1232.8,0.1424,5.7719E-002,1.0,2.45,-23.5,ASHRAEClearSky
Environment:WarmupDays, 10
 Warmup Convergence Information,BATH_ZN_1_FLR_1 ZN,SizingPeriod: SAN.DIEGO-BROWN.FIELD.MUNI.AP_CA_USA ANN HTG 99.6% CONDNS DB,7.1163699120E-002,0.1093735624,Pass,Pass,0.2291117704,0.4175840308,Pass,Pass
 Warmup Convergence Information,CAFETERIA_ZN_1_FLR_1 ZN,SizingPeriod: SAN.DIEGO-BROWN.FIELD.MUNI.AP_CA_USA ANN HTG 99.6% CONDNS DB,4.8046051402E-002,0.2988269628,Pass,Pass,3.8311381325E-002,0.2639042043,Pass,Pass
 Warmup Convergence Information,COMPUTER_CLASS_ZN_1_FLR_1 ZN,SizingPeriod: SAN.DIEGO-BROWN.FIELD.MUNI.AP_CA_USA ANN HTG 99.6% CONDNS DB,6.1034961244E-002,9.4901299347E-002,Pass,Pass,0.2400646323,0.4338652758,Pass,Pass
 Warmup Convergence Information,CORNER_CLASS_1_POD_1_ZN_1_FLR_1 ZN,SizingPeriod: SAN.DIEGO-BROWN.FIELD.MUNI.AP_CA_USA ANN HTG 99.6% CONDNS DB,0.1498009948,0.2321075495,Pass,Pass,0.2078093678,0.3950122094,Pass,Pass
 Warmup Convergence Information,CORNER_CLASS_1_POD_2_ZN_1_FLR_1 ZN,SizingPeriod: SAN.DIEGO-BROWN.FIELD.MUNI.AP_CA_USA ANN HTG 99.6% CONDNS DB,0.1479922778,0.2292986302,Pass,Pass,0.2079800713,0.3951221349,Pass,Pass
 Warmup Convergence Information,CORNER_CLASS_1_POD_3_ZN_1_FLR_1 ZN,SizingPeriod: SAN.DIEGO-BROWN.FIELD.MUNI.AP_CA_USA ANN HTG 99.6% CONDNS DB,0.1481495462,0.2295552454,Pass,Pass,0.2078453067,0.3950307796,Pass,Pass
 Warmup Convergence Information,CORNER_CLASS_2_POD_1_ZN_1_FLR_1 ZN,SizingPeriod: SAN.DIEGO-BROWN.FIELD.MUNI.AP_CA_USA ANN HTG 99.6% CONDNS DB,0.1484589288,0.2300270770,Pass,Pass,0.2078867494,0.3950592292,Pass,Pass
 Warmup Convergence Information,CORNER_CLASS_2_POD_2_ZN_1_FLR_1 ZN,SizingPeriod: SAN.DIEGO-BROWN.FIELD.MUNI.AP_CA_USA ANN HTG 99.6% CONDNS DB,0.1486868823,0.2303772136,Pass,Pass,0.2079191137,0.3950821925,Pass,Pass
 Warmup Convergence Information,CORNER_CLASS_2_POD_3_ZN_1_FLR_1 ZN,SizingPeriod: SAN.DIEGO-BROWN.FIELD.MUNI.AP_CA_USA ANN HTG 99.6% CONDNS DB,0.1504566574,0.2331353088,Pass,Pass,0.2076778564,0.3949257303,Pass,Pass
 Warmup Convergence Information,CORRIDOR_POD_1_ZN_1_FLR_1 ZN,SizingPeriod: SAN.DIEGO-BROWN.FIELD.MUNI.AP_CA_USA ANN HTG 99.6% CONDNS DB,5.4423518677E-002,8.3687548377E-002,Pass,Pass,0.2198372941,0.4060072676,Pass,Pass
 Warmup Convergence Information,CORRIDOR_POD_2_ZN_1_FLR_1 ZN,SizingPeriod: SAN.DIEGO-BROWN.FIELD.MUNI.AP_CA_USA ANN HTG 99.6% CONDNS DB,5.4284188650E-002,8.3493591423E-002,Pass,Pass,0.2199252701,0.4061169763,Pass,Pass
 Warmup Convergence Information,CORRIDOR_POD_3_ZN_1_FLR_1 ZN,SizingPeriod: SAN.DIEGO-BROWN.FIELD.MUNI.AP_CA_USA ANN HTG 99.6% CONDNS DB,5.3804945904E-002,8.2722611071E-002,Pass,Pass,0.2201254950,0.4063293746,Pass,Pass
 Warmup Convergence Information,GYM_ZN_1_FLR_1 ZN,SizingPeriod: SAN.DIEGO-BROWN.FIELD.MUNI.AP_CA_USA ANN HTG 99.6% CONDNS DB,3.8795703751E-002,0.2423369828,Pass,Pass,6.6318615020E-002,0.5638899406,Pass,Pass
 Warmup Convergence Information,KITCHEN_ZN_1_FLR_1 ZN,SizingPeriod: SAN.DIEGO-BROWN.FIELD.MUNI.AP_CA_USA ANN HTG 99.6% CONDNS DB,8.4405204102E-003,2.0851148927E-002,Pass,Pass,0.0000000000,0.0000000000,Pass,Pass
 Warmup Convergence Information,LIBRARY_MEDIA_CENTER_ZN_1_FLR_1 ZN,SizingPeriod: SAN.DIEGO-BROWN.FIELD.MUNI.AP_CA_USA ANN HTG 99.6% CONDNS DB,7.0327974832E-002,0.1082848631,Pass,Pass,0.2348096669,0.4257133237,Pass,Pass
 Warmup Convergence Information,LOBBY_ZN_1_FLR_1 ZN,SizingPeriod: SAN.DIEGO-BROWN.FIELD.MUNI.AP_CA_USA ANN HTG 99.6% CONDNS DB,0.1303131429,0.2011047697,Pass,Pass,0.2159928087,0.4019587355,Pass,Pass
 Warmup Convergence Information,MAIN_CORRIDOR_ZN_1_FLR_1 ZN,SizingPeriod: SAN.DIEGO-BROWN.FIELD.MUNI.AP_CA_USA ANN HTG 99.6% CONDNS DB,4.6743030867E-002,7.1803148965E-002,Pass,Pass,0.2306148156,0.4199473799,Pass,Pass
 Warmup Convergence Information,MECH_ZN_1_FLR_1 ZN,SizingPeriod: SAN.DIEGO-BROWN.FIELD.MUNI.AP_CA_USA ANN HTG 99.6% CONDNS DB,4.6019250775E-002,5.5551887570E-002,Pass,Pass,0.3034293258,0.6138011687,Pass,Pass
 Warmup Convergence Information,MULT_CLASS_1_POD_1_ZN_1_FLR_1 ZN,SizingPeriod: SAN.DIEGO-BROWN.FIELD.MUNI.AP_CA_USA ANN HTG 99.6% CONDNS DB,8.0352114145E-002,0.1239194510,Pass,Pass,0.2172177236,0.4026573208,Pass,Pass
 Warmup Convergence Information,MULT_CLASS_1_POD_2_ZN_1_FLR_1 ZN,SizingPeriod: SAN.DIEGO-BROWN.FIELD.MUNI.AP_CA_USA ANN HTG 99.6% CONDNS DB,7.7201617737E-002,0.1189972980,Pass,Pass,0.2181519263,0.4036606508,Pass,Pass
 Warmup Convergence Information,MULT_CLASS_1_POD_3_ZN_1_FLR_1 ZN,SizingPeriod: SAN.DIEGO-BROWN.FIELD.MUNI.AP_CA_USA ANN HTG 99.6% CONDNS DB,7.7809696754E-002,0.1199628840,Pass,Pass,0.2177020328,0.4031759490,Pass,Pass
 Warmup Convergence Information,MULT_CLASS_2_POD_1_ZN_1_FLR_1 ZN,SizingPeriod: SAN.DIEGO-BROWN.FIELD.MUNI.AP_CA_USA ANN HTG 99.6% CONDNS DB,7.5714097298E-002,0.1166692115,Pass,Pass,0.2184366645,0.4039582960,Pass,Pass
 Warmup Convergence Information,MULT_CLASS_2_POD_2_ZN_1_FLR_1 ZN,SizingPeriod: SAN.DIEGO-BROWN.FIELD.MUNI.AP_CA_USA ANN HTG 99.6% CONDNS DB,7.5979747208E-002,0.1170807073,Pass,Pass,0.2184733640,0.4040024276,Pass,Pass
 Warmup Convergence Information,MULT_CLASS_2_POD_3_ZN_1_FLR_1 ZN,SizingPeriod: SAN.DIEGO-BROWN.FIELD.MUNI.AP_CA_USA ANN HTG 99.6% CONDNS DB,8.0349070193E-002,0.1239202870,Pass,Pass,0.2169713627,0.4024384695,Pass,Pass
 Warmup Convergence Information,OFFICES_ZN_1_FLR_1 ZN,SizingPeriod: SAN.DIEGO-BROWN.FIELD.MUNI.AP_CA_USA ANN HTG 99.6% CONDNS DB,8.2808687607E-002,0.1271557129,Pass,Pass,0.2287734937,0.4169498809,Pass,Pass
Environment,SAN.DIEGO-BROWN.FIELD.MUNI.AP_CA_USA ANN CLG .4% CONDNS DB=>MWB HVAC Sizing Pass 1,SizingPeriod:DesignDay,08/21,08/21,SummerDesignDay,1,N/A,N/A,N/A,N/A,N/A,N/A,Clark and Allen
Environment:Daylight Saving,No,SizingPeriod:DesignDay
Environment,SAN.DIEGO-BROWN.FIELD.MUNI.AP_CA_USA ANN HTG 99.6% CONDNS DB HVAC Sizing Pass 1,SizingPeriod:DesignDay,12/21,12/21,WinterDesignDay,1,N/A,N/A,N/A,N/A,N/A,N/A,Clark and Allen
Environment:Daylight Saving,No,SizingPeriod:DesignDay
! <Program Control Information:Threads/Parallel Sims>, Threading Supported,Maximum Number of Threads, Env Set Threads (OMP_NUM_THREADS), EP Env Set Threads (EP_OMP_NUM_THREADS), IDF Set Threads, Number of Threads Used (Interior Radiant Exchange), Number Nominal Surfaces, Number Parallel Sims
Program Control:Threads/Parallel Sims, No,1, N/A, N/A, N/A, N/A, N/A, N/A
End of Data
