Program Version,EnergyPlus, Version 22.1.0-ed759b17ee, YMD=2022.11.28 22:36
! This file shows details about the branches, nodes, and other
! elements of the flow connections.
! This file is intended for use in "debugging" potential problems
! that may also be detected by the program, but may be more easily
! identified by "eye".
! This file is also intended to support software which draws a
! schematic diagram of the HVAC system.
! ===============================================================
! #Nodes,<Number of Unique Nodes>
 #Nodes,303
! <Node>,<NodeNumber>,<Node Name>,<Node Fluid Type>,<# Times Node Referenced After Definition>
 Node,1,NODE 181,Air,4
 Node,2,NODE 226,Air,2
 Node,3,NODE 182,Air,2
 Node,4,NODE 218,Air,4
 Node,5,NODE 222,Air,2
 Node,6,NODE 152,Air,4
 Node,7,NODE 162,Air,2
 Node,8,NODE 44,Air,4
 Node,9,NODE 54,Air,2
 Node,10,NODE 109,Air,4
 Node,11,NODE 110,Air,2
 Node,12,NODE 116,Air,4
 Node,13,NODE 126,Air,2
 Node,14,NODE 68,Air,4
 Node,15,NODE 69,Air,2
 Node,16,NODE 99,Air,4
 Node,17,NODE 100,Air,2
 Node,18,NODE 140,Air,4
 Node,19,NODE 141,Air,2
 Node,20,NODE 63,Air,4
 Node,21,NODE 64,Air,2
 Node,22,NODE 94,Air,4
 Node,23,NODE 95,Air,2
 Node,24,NODE 135,Air,4
 Node,25,NODE 136,Air,2
 Node,26,NODE 208,Air,4
 Node,27,NODE 212,Air,2
 Node,28,NODE 198,Air,4
 Node,29,NODE 224,Air,2
 Node,30,NODE 202,Air,2
 Node,31,NODE 191,Air,4
 Node,32,NODE 228,Air,2
 Node,33,NODE 192,Air,2
 Node,34,NODE 171,Air,4
 Node,35,NODE 172,Air,2
 Node,36,NODE 166,Air,4
 Node,37,NODE 167,Air,2
 Node,38,NODE 176,Air,4
 Node,39,NODE 177,Air,2
 Node,40,NODE 58,Air,4
 Node,41,NODE 59,Air,2
 Node,42,NODE 80,Air,4
 Node,43,NODE 90,Air,2
 Node,44,NODE 130,Air,4
 Node,45,NODE 131,Air,2
 Node,46,NODE 73,Air,4
 Node,47,NODE 74,Air,2
 Node,48,NODE 104,Air,4
 Node,49,NODE 105,Air,2
 Node,50,NODE 145,Air,4
 Node,51,NODE 146,Air,2
 Node,52,NODE 186,Air,4
 Node,53,NODE 187,Air,2
 Node,54,NODE 215,Air,6
 Node,55,NODE 216,Air,3
 Node,56,NODE 205,Air,6
 Node,57,NODE 206,Air,3
 Node,58,NODE 195,Air,6
 Node,59,NODE 196,Air,3
 Node,60,NODE 149,Air,10
 Node,61,NODE 150,Air,3
 Node,62,NODE 41,Air,10
 Node,63,NODE 42,Air,3
 Node,64,NODE 77,Air,10
 Node,65,NODE 78,Air,3
 Node,66,NODE 113,Air,10
 Node,67,NODE 114,Air,3
 Node,68,NODE 214,Air,3
 Node,69,NODE 221,Air,6
 Node,70,NODE 204,Air,3
 Node,71,NODE 211,Air,6
 Node,72,NODE 194,Air,3
 Node,73,NODE 201,Air,6
 Node,74,NODE 148,Air,3
 Node,75,NODE 159,Air,6
 Node,76,NODE 156,Air,6
 Node,77,NODE 155,Air,8
 Node,78,NODE 40,Air,3
 Node,79,NODE 51,Air,6
 Node,80,NODE 48,Air,6
 Node,81,NODE 47,Air,8
 Node,82,NODE 76,Air,3
 Node,83,NODE 87,Air,6
 Node,84,NODE 84,Air,6
 Node,85,NODE 83,Air,8
 Node,86,NODE 112,Air,3
 Node,87,NODE 123,Air,6
 Node,88,NODE 120,Air,6
 Node,89,NODE 119,Air,8
 Node,90,NODE 26,Water,2
 Node,91,NODE 32,Water,1
 Node,92,NODE 28,Water,1
 Node,93,NODE 33,Water,1
 Node,94,NODE 34,Water,1
 Node,95,NODE 35,Water,1
 Node,96,NODE 37,Water,1
 Node,97,NODE 27,Water,4
 Node,98,NODE 29,Water,2
 Node,99,NODE 38,Water,1
 Node,100,NODE 31,Water,1
 Node,101,NODE 36,Water,1
 Node,102,NODE 45,Water,2
 Node,103,NODE 46,Water,1
 Node,104,NODE 52,Water,1
 Node,105,NODE 53,Water,1
 Node,106,NODE 56,Water,1
 Node,107,NODE 57,Water,1
 Node,108,NODE 61,Water,1
 Node,109,NODE 62,Water,1
 Node,110,NODE 66,Water,1
 Node,111,NODE 67,Water,1
 Node,112,NODE 71,Water,1
 Node,113,NODE 72,Water,1
 Node,114,NODE 81,Water,2
 Node,115,NODE 82,Water,1
 Node,116,NODE 88,Water,1
 Node,117,NODE 89,Water,1
 Node,118,NODE 92,Water,1
 Node,119,NODE 93,Water,1
 Node,120,NODE 97,Water,1
 Node,121,NODE 98,Water,1
 Node,122,NODE 102,Water,1
 Node,123,NODE 103,Water,1
 Node,124,NODE 107,Water,1
 Node,125,NODE 108,Water,1
 Node,126,NODE 117,Water,2
 Node,127,NODE 118,Water,1
 Node,128,NODE 124,Water,1
 Node,129,NODE 125,Water,1
 Node,130,NODE 128,Water,1
 Node,131,NODE 129,Water,1
 Node,132,NODE 133,Water,1
 Node,133,NODE 134,Water,1
 Node,134,NODE 138,Water,1
 Node,135,NODE 139,Water,1
 Node,136,NODE 143,Water,1
 Node,137,NODE 144,Water,1
 Node,138,NODE 153,Water,2
 Node,139,NODE 154,Water,1
 Node,140,NODE 160,Water,1
 Node,141,NODE 161,Water,1
 Node,142,NODE 164,Water,1
 Node,143,NODE 165,Water,1
 Node,144,NODE 169,Water,1
 Node,145,NODE 170,Water,1
 Node,146,NODE 174,Water,1
 Node,147,NODE 175,Water,1
 Node,148,NODE 179,Water,1
 Node,149,NODE 180,Water,1
 Node,150,NODE 184,Water,1
 Node,151,NODE 185,Water,1
 Node,152,NODE 189,Water,1
 Node,153,NODE 190,Water,1
 Node,154,HOT WATER LOOP DEMAND BYPASS PIPE INLET NODE,Water,1
 Node,155,HOT WATER LOOP DEMAND BYPASS PIPE OUTLET NODE,Water,1
 Node,156,NODE 39,Water,1
 Node,157,NODE 30,Water,2
 Node,158,NODE 230,Water,2
 Node,159,NODE 236,Water,1
 Node,160,NODE 232,Water,1
 Node,161,NODE 237,Water,1
 Node,162,NODE 238,Water,1
 Node,163,NODE 239,Water,1
 Node,164,NODE 241,Water,1
 Node,165,NODE 231,Water,4
 Node,166,NODE 233,Water,2
 Node,167,MAIN SERVICE WATER LOOP DEMAND INLET PIPE NODE,Water,1
 Node,168,NODE 235,Water,1
 Node,169,NODE 240,Water,1
 Node,170,NODE 243,Water,1
 Node,171,NODE 244,Water,1
 Node,172,NODE 260,Water,1
 Node,173,NODE 261,Water,3
 Node,174,NODE 262,Water,1
 Node,175,MAIN SERVICE WATER LOOP DEMAND BYPASS PIPE INLET NODE,Water,1
 Node,176,MAIN SERVICE WATER LOOP DEMAND BYPASS PIPE OUTLET NODE,Water,1
 Node,177,NODE 242,Water,1
 Node,178,NODE 234,Water,2
 Node,179,NODE 245,Water,2
 Node,180,NODE 259,Water,3
 Node,181,NODE 251,Water,1
 Node,182,NODE 247,Water,1
 Node,183,NODE 252,Water,1
 Node,184,NODE 253,Water,1
 Node,185,NODE 254,Water,1
 Node,186,NODE 256,Water,1
 Node,187,NODE 246,Water,5
 Node,188,NODE 248,Water,2
 Node,189,NODE 257,Water,1
 Node,190,NODE 250,Water,1
 Node,191,NODE 255,Water,1
 Node,192,NODE 263,Water,1
 Node,193,NODE 264,Water,1
 Node,194,SERVICE WATER LOOP DEMAND BYPASS PIPE INLET NODE,Water,1
 Node,195,SERVICE WATER LOOP DEMAND BYPASS PIPE OUTLET NODE,Water,1
 Node,196,NODE 258,Water,1
 Node,197,NODE 249,Water,2
 Node,198,NODE 1,Air,0
 Node,199,NODE 2,Air,1
 Node,200,NODE 3,Air,0
 Node,201,NODE 4,Air,0
 Node,202,NODE 5,Air,0
 Node,203,NODE 6,Air,0
 Node,204,NODE 7,Air,0
 Node,205,NODE 8,Air,0
 Node,206,NODE 9,Air,0
 Node,207,NODE 10,Air,0
 Node,208,NODE 11,Air,0
 Node,209,NODE 12,Air,0
 Node,210,NODE 13,Air,1
 Node,211,NODE 14,Air,1
 Node,212,NODE 15,Air,0
 Node,213,NODE 16,Air,0
 Node,214,NODE 17,Air,0
 Node,215,NODE 18,Air,0
 Node,216,NODE 19,Air,0
 Node,217,NODE 20,Air,0
 Node,218,NODE 21,Air,0
 Node,219,NODE 22,Air,0
 Node,220,NODE 23,Air,0
 Node,221,NODE 24,Air,0
 Node,222,NODE 25,Air,0
 Node,223,NODE 217,Air,2
 Node,224,NODE 207,Air,2
 Node,225,NODE 197,Air,2
 Node,226,NODE 151,Air,2
 Node,227,NODE 43,Air,2
 Node,228,NODE 79,Air,2
 Node,229,NODE 115,Air,2
 Node,230,NODE 219,Air,2
 Node,231,NODE 209,Air,2
 Node,232,NODE 199,Air,2
 Node,233,NODE 157,Air,2
 Node,234,NODE 49,Air,2
 Node,235,NODE 85,Air,2
 Node,236,NODE 121,Air,2
 Node,237,MODEL OUTDOOR AIR NODE,Air,0
 Node,238,CAFETERIA_ZN_1_FLR_1 ZN PSZ-AC_2-7 UNITARY AC HEATING COIL - FAN NODE,Air,2
 Node,239,CAFETERIA_ZN_1_FLR_1 ZN PSZ-AC_2-7 UNITARY AC FAN - SUPPLEMENTAL COIL NODE,Air,2
 Node,240,GYM_ZN_1_FLR_1 ZN PSZ-AC_2-5 UNITARY AC HEATING COIL - FAN NODE,Air,2
 Node,241,GYM_ZN_1_FLR_1 ZN PSZ-AC_2-5 UNITARY AC FAN - SUPPLEMENTAL COIL NODE,Air,2
 Node,242,KITCHEN_ZN_1_FLR_1 ZN PSZ-AC_1-6 UNITARY AC HEATING COIL - FAN NODE,Air,2
 Node,243,KITCHEN_ZN_1_FLR_1 ZN PSZ-AC_1-6 UNITARY AC FAN - SUPPLEMENTAL COIL NODE,Air,2
 Node,244,NODE 223,Air,1
 Node,245,NODE 213,Air,1
 Node,246,NODE 203,Air,1
 Node,247,NODE 163,Air,1
 Node,248,NODE 168,Air,1
 Node,249,NODE 173,Air,1
 Node,250,NODE 178,Air,1
 Node,251,NODE 183,Air,1
 Node,252,NODE 188,Air,1
 Node,253,NODE 193,Air,1
 Node,254,NODE 55,Air,1
 Node,255,NODE 60,Air,1
 Node,256,NODE 65,Air,1
 Node,257,NODE 70,Air,1
 Node,258,NODE 75,Air,1
 Node,259,NODE 91,Air,1
 Node,260,NODE 96,Air,1
 Node,261,NODE 101,Air,1
 Node,262,NODE 106,Air,1
 Node,263,NODE 111,Air,1
 Node,264,NODE 127,Air,1
 Node,265,NODE 132,Air,1
 Node,266,NODE 137,Air,1
 Node,267,NODE 142,Air,1
 Node,268,NODE 147,Air,1
 Node,269,BATH_ZN_1_FLR_1 ZN VAV TERMINAL DAMPER OUTLET,Air,1
 Node,270,COMPUTER_CLASS_ZN_1_FLR_1 ZN VAV TERMINAL DAMPER OUTLET,Air,1
 Node,271,CORNER_CLASS_1_POD_1_ZN_1_FLR_1 ZN VAV TERMINAL DAMPER OUTLET,Air,1
 Node,272,CORNER_CLASS_1_POD_2_ZN_1_FLR_1 ZN VAV TERMINAL DAMPER OUTLET,Air,1
 Node,273,CORNER_CLASS_1_POD_3_ZN_1_FLR_1 ZN VAV TERMINAL DAMPER OUTLET,Air,1
 Node,274,CORNER_CLASS_2_POD_1_ZN_1_FLR_1 ZN VAV TERMINAL DAMPER OUTLET,Air,1
 Node,275,CORNER_CLASS_2_POD_2_ZN_1_FLR_1 ZN VAV TERMINAL DAMPER OUTLET,Air,1
 Node,276,CORNER_CLASS_2_POD_3_ZN_1_FLR_1 ZN VAV TERMINAL DAMPER OUTLET,Air,1
 Node,277,CORRIDOR_POD_1_ZN_1_FLR_1 ZN VAV TERMINAL DAMPER OUTLET,Air,1
 Node,278,CORRIDOR_POD_2_ZN_1_FLR_1 ZN VAV TERMINAL DAMPER OUTLET,Air,1
 Node,279,CORRIDOR_POD_3_ZN_1_FLR_1 ZN VAV TERMINAL DAMPER OUTLET,Air,1
 Node,280,LIBRARY_MEDIA_CENTER_ZN_1_FLR_1 ZN VAV TERMINAL DAMPER OUTLET,Air,1
 Node,281,LOBBY_ZN_1_FLR_1 ZN VAV TERMINAL DAMPER OUTLET,Air,1
 Node,282,MAIN_CORRIDOR_ZN_1_FLR_1 ZN VAV TERMINAL DAMPER OUTLET,Air,1
 Node,283,MECH_ZN_1_FLR_1 ZN VAV TERMINAL DAMPER OUTLET,Air,1
 Node,284,MULT_CLASS_1_POD_1_ZN_1_FLR_1 ZN VAV TERMINAL DAMPER OUTLET,Air,1
 Node,285,MULT_CLASS_1_POD_2_ZN_1_FLR_1 ZN VAV TERMINAL DAMPER OUTLET,Air,1
 Node,286,MULT_CLASS_1_POD_3_ZN_1_FLR_1 ZN VAV TERMINAL DAMPER OUTLET,Air,1
 Node,287,MULT_CLASS_2_POD_1_ZN_1_FLR_1 ZN VAV TERMINAL DAMPER OUTLET,Air,1
 Node,288,MULT_CLASS_2_POD_2_ZN_1_FLR_1 ZN VAV TERMINAL DAMPER OUTLET,Air,1
 Node,289,MULT_CLASS_2_POD_3_ZN_1_FLR_1 ZN VAV TERMINAL DAMPER OUTLET,Air,1
 Node,290,OFFICES_ZN_1_FLR_1 ZN VAV TERMINAL DAMPER OUTLET,Air,1
 Node,291,NODE 227,Air,0
 Node,292,NODE 225,Air,0
 Node,293,NODE 229,Air,0
 Node,294,NODE 220,Air,1
 Node,295,NODE 210,Air,1
 Node,296,NODE 200,Air,1
 Node,297,NODE 158,Air,1
 Node,298,NODE 50,Air,1
 Node,299,NODE 86,Air,1
 Node,300,NODE 122,Air,1
 Node,301,CAFETERIA_ZN_1_FLR_1 ZN PSZ-AC_2-7 UNITARY AC COOLING COIL - HEATING COIL NODE,Air,1
 Node,302,GYM_ZN_1_FLR_1 ZN PSZ-AC_2-5 UNITARY AC COOLING COIL - HEATING COIL NODE,Air,1
 Node,303,KITCHEN_ZN_1_FLR_1 ZN PSZ-AC_1-6 UNITARY AC COOLING COIL - HEATING COIL NODE,Air,1
! ===============================================================
! Suspicious nodes have 0 references.  It is normal for some nodes, however.
! Listing nodes with 0 references (culled from previous list):
! <Suspicious Node>,<NodeNumber>,<Node Name>,<Node Fluid Type>,<# Times Node Referenced After Definition>
 Suspicious Node,198,NODE 1,Air,0
 Suspicious Node,200,NODE 3,Air,0
 Suspicious Node,201,NODE 4,Air,0
 Suspicious Node,202,NODE 5,Air,0
 Suspicious Node,203,NODE 6,Air,0
 Suspicious Node,204,NODE 7,Air,0
 Suspicious Node,205,NODE 8,Air,0
 Suspicious Node,206,NODE 9,Air,0
 Suspicious Node,207,NODE 10,Air,0
 Suspicious Node,208,NODE 11,Air,0
 Suspicious Node,209,NODE 12,Air,0
 Suspicious Node,212,NODE 15,Air,0
 Suspicious Node,213,NODE 16,Air,0
 Suspicious Node,214,NODE 17,Air,0
 Suspicious Node,215,NODE 18,Air,0
 Suspicious Node,216,NODE 19,Air,0
 Suspicious Node,217,NODE 20,Air,0
 Suspicious Node,218,NODE 21,Air,0
 Suspicious Node,219,NODE 22,Air,0
 Suspicious Node,220,NODE 23,Air,0
 Suspicious Node,221,NODE 24,Air,0
 Suspicious Node,222,NODE 25,Air,0
 Suspicious Node,237,MODEL OUTDOOR AIR NODE,Air,0
 Suspicious Node,291,NODE 227,Air,0
 Suspicious Node,292,NODE 225,Air,0
 Suspicious Node,293,NODE 229,Air,0
! ===============================================================
! <#Branch Lists>,<Number of Branch Lists>
 #Branch Lists,13
! <Branch List>,<Branch List Count>,<Branch List Name>,<Loop Name>,<Loop Type>,<Number of Branches>
! <Branch>,<Branch Count>,<Branch Name>,<Loop Name>,<Loop Type>,<Branch Inlet Node Name>,<Branch Outlet Node Name>
 Branch List,1,CAFETERIA_ZN_1_FLR_1 ZN PSZ-AC_2-7 SUPPLY BRANCHES,CAFETERIA_ZN_1_FLR_1 ZN PSZ-AC_2-7,Air,1
   Branch,1,CAFETERIA_ZN_1_FLR_1 ZN PSZ-AC_2-7 MAIN BRANCH,CAFETERIA_ZN_1_FLR_1 ZN PSZ-AC_2-7,Air,NODE 214,NODE 215
 Branch List,2,GYM_ZN_1_FLR_1 ZN PSZ-AC_2-5 SUPPLY BRANCHES,GYM_ZN_1_FLR_1 ZN PSZ-AC_2-5,Air,1
   Branch,1,GYM_ZN_1_FLR_1 ZN PSZ-AC_2-5 MAIN BRANCH,GYM_ZN_1_FLR_1 ZN PSZ-AC_2-5,Air,NODE 204,NODE 205
 Branch List,3,KITCHEN_ZN_1_FLR_1 ZN PSZ-AC_1-6 SUPPLY BRANCHES,KITCHEN_ZN_1_FLR_1 ZN PSZ-AC_1-6,Air,1
   Branch,1,KITCHEN_ZN_1_FLR_1 ZN PSZ-AC_1-6 MAIN BRANCH,KITCHEN_ZN_1_FLR_1 ZN PSZ-AC_1-6,Air,NODE 194,NODE 195
 Branch List,4,PVAV_OTHER SUPPLY BRANCHES,PVAV_OTHER,Air,1
   Branch,1,PVAV_OTHER MAIN BRANCH,PVAV_OTHER,Air,NODE 148,NODE 149
 Branch List,5,PVAV_POD_1 SUPPLY BRANCHES,PVAV_POD_1,Air,1
   Branch,1,PVAV_POD_1 MAIN BRANCH,PVAV_POD_1,Air,NODE 40,NODE 41
 Branch List,6,PVAV_POD_2 SUPPLY BRANCHES,PVAV_POD_2,Air,1
   Branch,1,PVAV_POD_2 MAIN BRANCH,PVAV_POD_2,Air,NODE 76,NODE 77
 Branch List,7,PVAV_POD_3 SUPPLY BRANCHES,PVAV_POD_3,Air,1
   Branch,1,PVAV_POD_3 MAIN BRANCH,PVAV_POD_3,Air,NODE 112,NODE 113
 Branch List,8,HOT WATER LOOP SUPPLY BRANCHES,HOT WATER LOOP,Plant Supply,4
   Branch,1,HOT WATER LOOP SUPPLY INLET BRANCH,HOT WATER LOOP,Plant Supply,NODE 26,NODE 32
   Branch,2,HOT WATER LOOP SUPPLY BRANCH 1,HOT WATER LOOP,Plant Supply,NODE 28,NODE 33
   Branch,3,HOT WATER LOOP SUPPLY BRANCH 2,HOT WATER LOOP,Plant Supply,NODE 34,NODE 35
   Branch,4,HOT WATER LOOP SUPPLY OUTLET BRANCH,HOT WATER LOOP,Plant Supply,NODE 37,NODE 27
 Branch List,9,HOT WATER LOOP DEMAND BRANCHES,HOT WATER LOOP,Plant Demand,30
   Branch,1,HOT WATER LOOP DEMAND INLET BRANCH,HOT WATER LOOP,Plant Demand,NODE 29,NODE 38
   Branch,2,HOT WATER LOOP DEMAND BRANCH 1,HOT WATER LOOP,Plant Demand,NODE 31,NODE 36
   Branch,3,HOT WATER LOOP DEMAND BRANCH 2,HOT WATER LOOP,Plant Demand,NODE 45,NODE 46
   Branch,4,HOT WATER LOOP DEMAND BRANCH 3,HOT WATER LOOP,Plant Demand,NODE 52,NODE 53
   Branch,5,HOT WATER LOOP DEMAND BRANCH 4,HOT WATER LOOP,Plant Demand,NODE 56,NODE 57
   Branch,6,HOT WATER LOOP DEMAND BRANCH 5,HOT WATER LOOP,Plant Demand,NODE 61,NODE 62
   Branch,7,HOT WATER LOOP DEMAND BRANCH 6,HOT WATER LOOP,Plant Demand,NODE 66,NODE 67
   Branch,8,HOT WATER LOOP DEMAND BRANCH 7,HOT WATER LOOP,Plant Demand,NODE 71,NODE 72
   Branch,9,HOT WATER LOOP DEMAND BRANCH 8,HOT WATER LOOP,Plant Demand,NODE 81,NODE 82
   Branch,10,HOT WATER LOOP DEMAND BRANCH 9,HOT WATER LOOP,Plant Demand,NODE 88,NODE 89
   Branch,11,HOT WATER LOOP DEMAND BRANCH 10,HOT WATER LOOP,Plant Demand,NODE 92,NODE 93
   Branch,12,HOT WATER LOOP DEMAND BRANCH 11,HOT WATER LOOP,Plant Demand,NODE 97,NODE 98
   Branch,13,HOT WATER LOOP DEMAND BRANCH 12,HOT WATER LOOP,Plant Demand,NODE 102,NODE 103
   Branch,14,HOT WATER LOOP DEMAND BRANCH 13,HOT WATER LOOP,Plant Demand,NODE 107,NODE 108
   Branch,15,HOT WATER LOOP DEMAND BRANCH 14,HOT WATER LOOP,Plant Demand,NODE 117,NODE 118
   Branch,16,HOT WATER LOOP DEMAND BRANCH 15,HOT WATER LOOP,Plant Demand,NODE 124,NODE 125
   Branch,17,HOT WATER LOOP DEMAND BRANCH 16,HOT WATER LOOP,Plant Demand,NODE 128,NODE 129
   Branch,18,HOT WATER LOOP DEMAND BRANCH 17,HOT WATER LOOP,Plant Demand,NODE 133,NODE 134
   Branch,19,HOT WATER LOOP DEMAND BRANCH 18,HOT WATER LOOP,Plant Demand,NODE 138,NODE 139
   Branch,20,HOT WATER LOOP DEMAND BRANCH 19,HOT WATER LOOP,Plant Demand,NODE 143,NODE 144
   Branch,21,HOT WATER LOOP DEMAND BRANCH 20,HOT WATER LOOP,Plant Demand,NODE 153,NODE 154
   Branch,22,HOT WATER LOOP DEMAND BRANCH 21,HOT WATER LOOP,Plant Demand,NODE 160,NODE 161
   Branch,23,HOT WATER LOOP DEMAND BRANCH 22,HOT WATER LOOP,Plant Demand,NODE 164,NODE 165
   Branch,24,HOT WATER LOOP DEMAND BRANCH 23,HOT WATER LOOP,Plant Demand,NODE 169,NODE 170
   Branch,25,HOT WATER LOOP DEMAND BRANCH 24,HOT WATER LOOP,Plant Demand,NODE 174,NODE 175
   Branch,26,HOT WATER LOOP DEMAND BRANCH 25,HOT WATER LOOP,Plant Demand,NODE 179,NODE 180
   Branch,27,HOT WATER LOOP DEMAND BRANCH 26,HOT WATER LOOP,Plant Demand,NODE 184,NODE 185
   Branch,28,HOT WATER LOOP DEMAND BRANCH 27,HOT WATER LOOP,Plant Demand,NODE 189,NODE 190
   Branch,29,HOT WATER LOOP DEMAND BYPASS BRANCH,HOT WATER LOOP,Plant Demand,HOT WATER LOOP DEMAND BYPASS PIPE INLET NODE,HOT WATER LOOP DEMAND BYPASS PIPE OUTLET NODE
   Branch,30,HOT WATER LOOP DEMAND OUTLET BRANCH,HOT WATER LOOP,Plant Demand,NODE 39,NODE 30
 Branch List,10,MAIN SERVICE WATER LOOP SUPPLY BRANCHES,MAIN SERVICE WATER LOOP,Plant Supply,4
   Branch,1,MAIN SERVICE WATER LOOP SUPPLY INLET BRANCH,MAIN SERVICE WATER LOOP,Plant Supply,NODE 230,NODE 236
   Branch,2,MAIN SERVICE WATER LOOP SUPPLY BRANCH 1,MAIN SERVICE WATER LOOP,Plant Supply,NODE 232,NODE 237
   Branch,3,MAIN SERVICE WATER LOOP SUPPLY BRANCH 2,MAIN SERVICE WATER LOOP,Plant Supply,NODE 238,NODE 239
   Branch,4,MAIN SERVICE WATER LOOP SUPPLY OUTLET BRANCH,MAIN SERVICE WATER LOOP,Plant Supply,NODE 241,NODE 231
 Branch List,11,MAIN SERVICE WATER LOOP DEMAND BRANCHES,MAIN SERVICE WATER LOOP,Plant Demand,6
   Branch,1,MAIN SERVICE WATER LOOP DEMAND INLET BRANCH,MAIN SERVICE WATER LOOP,Plant Demand,NODE 233,MAIN SERVICE WATER LOOP DEMAND INLET PIPE NODE
   Branch,2,MAIN SERVICE WATER LOOP DEMAND BRANCH 1,MAIN SERVICE WATER LOOP,Plant Demand,NODE 235,NODE 240
   Branch,3,MAIN SERVICE WATER LOOP DEMAND BRANCH 2,MAIN SERVICE WATER LOOP,Plant Demand,NODE 243,NODE 244
   Branch,4,MAIN SERVICE WATER LOOP DEMAND BRANCH 3,MAIN SERVICE WATER LOOP,Plant Demand,NODE 260,NODE 262
   Branch,5,MAIN SERVICE WATER LOOP DEMAND BYPASS BRANCH,MAIN SERVICE WATER LOOP,Plant Demand,MAIN SERVICE WATER LOOP DEMAND BYPASS PIPE INLET NODE,MAIN SERVICE WATER LOOP DEMAND BYPASS PIPE OUTLET NODE
   Branch,6,MAIN SERVICE WATER LOOP DEMAND OUTLET BRANCH,MAIN SERVICE WATER LOOP,Plant Demand,NODE 242,NODE 234
 Branch List,12,SERVICE WATER LOOP SUPPLY BRANCHES,SERVICE WATER LOOP,Plant Supply,4
   Branch,1,SERVICE WATER LOOP SUPPLY INLET BRANCH,SERVICE WATER LOOP,Plant Supply,NODE 245,NODE 251
   Branch,2,SERVICE WATER LOOP SUPPLY BRANCH 1,SERVICE WATER LOOP,Plant Supply,NODE 247,NODE 252
   Branch,3,SERVICE WATER LOOP SUPPLY BRANCH 2,SERVICE WATER LOOP,Plant Supply,NODE 253,NODE 254
   Branch,4,SERVICE WATER LOOP SUPPLY OUTLET BRANCH,SERVICE WATER LOOP,Plant Supply,NODE 256,NODE 246
 Branch List,13,SERVICE WATER LOOP DEMAND BRANCHES,SERVICE WATER LOOP,Plant Demand,5
   Branch,1,SERVICE WATER LOOP DEMAND INLET BRANCH,SERVICE WATER LOOP,Plant Demand,NODE 248,NODE 257
   Branch,2,SERVICE WATER LOOP DEMAND BRANCH 1,SERVICE WATER LOOP,Plant Demand,NODE 250,NODE 255
   Branch,3,SERVICE WATER LOOP DEMAND BRANCH 2,SERVICE WATER LOOP,Plant Demand,NODE 263,NODE 264
   Branch,4,SERVICE WATER LOOP DEMAND BYPASS BRANCH,SERVICE WATER LOOP,Plant Demand,SERVICE WATER LOOP DEMAND BYPASS PIPE INLET NODE,SERVICE WATER LOOP DEMAND BYPASS PIPE OUTLET NODE
   Branch,5,SERVICE WATER LOOP DEMAND OUTLET BRANCH,SERVICE WATER LOOP,Plant Demand,NODE 258,NODE 249
! ===============================================================
! <#Supply Air Paths>,<Number of Supply Air Paths>
 #Supply Air Paths,7
! <Supply Air Path>,<Supply Air Path Count>,<Supply Air Path Name>,<AirLoopHVAC Name>
! <#Components on Supply Air Path>,<Number of Components>
! <Supply Air Path Component>,<Component Count>,<Component Type>,<Component Name>,<AirLoopHVAC Name>
! <#Outlet Nodes on Supply Air Path Component>,<Number of Nodes>
! <Supply Air Path Component Nodes>,<Node Count>,<Component Type>,<Component Name>,<Inlet Node Name>,<Outlet Node Name>,<AirLoopHVAC Name>
 Supply Air Path,1,CAFETERIA_ZN_1_FLR_1 ZN PSZ-AC_2-7 NODE 216 SUPPLY PATH,CAFETERIA_ZN_1_FLR_1 ZN PSZ-AC_2-7
   #Components on Supply Air Path,1
   Supply Air Path Component,1,AIRLOOPHVAC:ZONESPLITTER,AIR LOOP HVAC ZONE SPLITTER 7,CAFETERIA_ZN_1_FLR_1 ZN PSZ-AC_2-7
     #Outlet Nodes on Supply Air Path Component,1
     Supply Air Path Component Nodes,1,AIRLOOPHVAC:ZONESPLITTER,AIR LOOP HVAC ZONE SPLITTER 7,NODE 216,NODE 223,CAFETERIA_ZN_1_FLR_1 ZN PSZ-AC_2-7
! <#Nodes on Supply Air Path>,<Number of Nodes>
! <Supply Air Path Node>,<Node Type>,<Node Count>,<Node Name>,<AirLoopHVAC Name>
#Nodes on Supply Air Path,2
   Supply Air Path Node,Inlet Node,1,NODE 216,CAFETERIA_ZN_1_FLR_1 ZN PSZ-AC_2-7
   Supply Air Path Node,Outlet Node,2,NODE 223,CAFETERIA_ZN_1_FLR_1 ZN PSZ-AC_2-7
 Supply Air Path,2,GYM_ZN_1_FLR_1 ZN PSZ-AC_2-5 NODE 206 SUPPLY PATH,GYM_ZN_1_FLR_1 ZN PSZ-AC_2-5
   #Components on Supply Air Path,1
   Supply Air Path Component,1,AIRLOOPHVAC:ZONESPLITTER,AIR LOOP HVAC ZONE SPLITTER 6,GYM_ZN_1_FLR_1 ZN PSZ-AC_2-5
     #Outlet Nodes on Supply Air Path Component,1
     Supply Air Path Component Nodes,1,AIRLOOPHVAC:ZONESPLITTER,AIR LOOP HVAC ZONE SPLITTER 6,NODE 206,NODE 213,GYM_ZN_1_FLR_1 ZN PSZ-AC_2-5
! <#Nodes on Supply Air Path>,<Number of Nodes>
! <Supply Air Path Node>,<Node Type>,<Node Count>,<Node Name>,<AirLoopHVAC Name>
#Nodes on Supply Air Path,2
   Supply Air Path Node,Inlet Node,1,NODE 206,GYM_ZN_1_FLR_1 ZN PSZ-AC_2-5
   Supply Air Path Node,Outlet Node,2,NODE 213,GYM_ZN_1_FLR_1 ZN PSZ-AC_2-5
 Supply Air Path,3,KITCHEN_ZN_1_FLR_1 ZN PSZ-AC_1-6 NODE 196 SUPPLY PATH,KITCHEN_ZN_1_FLR_1 ZN PSZ-AC_1-6
   #Components on Supply Air Path,1
   Supply Air Path Component,1,AIRLOOPHVAC:ZONESPLITTER,AIR LOOP HVAC ZONE SPLITTER 5,KITCHEN_ZN_1_FLR_1 ZN PSZ-AC_1-6
     #Outlet Nodes on Supply Air Path Component,1
     Supply Air Path Component Nodes,1,AIRLOOPHVAC:ZONESPLITTER,AIR LOOP HVAC ZONE SPLITTER 5,NODE 196,NODE 203,KITCHEN_ZN_1_FLR_1 ZN PSZ-AC_1-6
! <#Nodes on Supply Air Path>,<Number of Nodes>
! <Supply Air Path Node>,<Node Type>,<Node Count>,<Node Name>,<AirLoopHVAC Name>
#Nodes on Supply Air Path,2
   Supply Air Path Node,Inlet Node,1,NODE 196,KITCHEN_ZN_1_FLR_1 ZN PSZ-AC_1-6
   Supply Air Path Node,Outlet Node,2,NODE 203,KITCHEN_ZN_1_FLR_1 ZN PSZ-AC_1-6
 Supply Air Path,4,PVAV_OTHER NODE 150 SUPPLY PATH,PVAV_OTHER
   #Components on Supply Air Path,1
   Supply Air Path Component,1,AIRLOOPHVAC:ZONESPLITTER,AIR LOOP HVAC ZONE SPLITTER 4,PVAV_OTHER
     #Outlet Nodes on Supply Air Path Component,7
     Supply Air Path Component Nodes,1,AIRLOOPHVAC:ZONESPLITTER,AIR LOOP HVAC ZONE SPLITTER 4,NODE 150,NODE 163,PVAV_OTHER
     Supply Air Path Component Nodes,2,AIRLOOPHVAC:ZONESPLITTER,AIR LOOP HVAC ZONE SPLITTER 4,NODE 150,NODE 168,PVAV_OTHER
     Supply Air Path Component Nodes,3,AIRLOOPHVAC:ZONESPLITTER,AIR LOOP HVAC ZONE SPLITTER 4,NODE 150,NODE 173,PVAV_OTHER
     Supply Air Path Component Nodes,4,AIRLOOPHVAC:ZONESPLITTER,AIR LOOP HVAC ZONE SPLITTER 4,NODE 150,NODE 178,PVAV_OTHER
     Supply Air Path Component Nodes,5,AIRLOOPHVAC:ZONESPLITTER,AIR LOOP HVAC ZONE SPLITTER 4,NODE 150,NODE 183,PVAV_OTHER
     Supply Air Path Component Nodes,6,AIRLOOPHVAC:ZONESPLITTER,AIR LOOP HVAC ZONE SPLITTER 4,NODE 150,NODE 188,PVAV_OTHER
     Supply Air Path Component Nodes,7,AIRLOOPHVAC:ZONESPLITTER,AIR LOOP HVAC ZONE SPLITTER 4,NODE 150,NODE 193,PVAV_OTHER
! <#Nodes on Supply Air Path>,<Number of Nodes>
! <Supply Air Path Node>,<Node Type>,<Node Count>,<Node Name>,<AirLoopHVAC Name>
#Nodes on Supply Air Path,8
   Supply Air Path Node,Inlet Node,1,NODE 150,PVAV_OTHER
   Supply Air Path Node,Outlet Node,2,NODE 163,PVAV_OTHER
   Supply Air Path Node,Outlet Node,3,NODE 168,PVAV_OTHER
   Supply Air Path Node,Outlet Node,4,NODE 173,PVAV_OTHER
   Supply Air Path Node,Outlet Node,5,NODE 178,PVAV_OTHER
   Supply Air Path Node,Outlet Node,6,NODE 183,PVAV_OTHER
   Supply Air Path Node,Outlet Node,7,NODE 188,PVAV_OTHER
   Supply Air Path Node,Outlet Node,8,NODE 193,PVAV_OTHER
 Supply Air Path,5,PVAV_POD_1 NODE 42 SUPPLY PATH,PVAV_POD_1
   #Components on Supply Air Path,1
   Supply Air Path Component,1,AIRLOOPHVAC:ZONESPLITTER,AIR LOOP HVAC ZONE SPLITTER 1,PVAV_POD_1
     #Outlet Nodes on Supply Air Path Component,5
     Supply Air Path Component Nodes,1,AIRLOOPHVAC:ZONESPLITTER,AIR LOOP HVAC ZONE SPLITTER 1,NODE 42,NODE 55,PVAV_POD_1
     Supply Air Path Component Nodes,2,AIRLOOPHVAC:ZONESPLITTER,AIR LOOP HVAC ZONE SPLITTER 1,NODE 42,NODE 60,PVAV_POD_1
     Supply Air Path Component Nodes,3,AIRLOOPHVAC:ZONESPLITTER,AIR LOOP HVAC ZONE SPLITTER 1,NODE 42,NODE 65,PVAV_POD_1
     Supply Air Path Component Nodes,4,AIRLOOPHVAC:ZONESPLITTER,AIR LOOP HVAC ZONE SPLITTER 1,NODE 42,NODE 70,PVAV_POD_1
     Supply Air Path Component Nodes,5,AIRLOOPHVAC:ZONESPLITTER,AIR LOOP HVAC ZONE SPLITTER 1,NODE 42,NODE 75,PVAV_POD_1
! <#Nodes on Supply Air Path>,<Number of Nodes>
! <Supply Air Path Node>,<Node Type>,<Node Count>,<Node Name>,<AirLoopHVAC Name>
#Nodes on Supply Air Path,6
   Supply Air Path Node,Inlet Node,1,NODE 42,PVAV_POD_1
   Supply Air Path Node,Outlet Node,2,NODE 55,PVAV_POD_1
   Supply Air Path Node,Outlet Node,3,NODE 60,PVAV_POD_1
   Supply Air Path Node,Outlet Node,4,NODE 65,PVAV_POD_1
   Supply Air Path Node,Outlet Node,5,NODE 70,PVAV_POD_1
   Supply Air Path Node,Outlet Node,6,NODE 75,PVAV_POD_1
 Supply Air Path,6,PVAV_POD_2 NODE 78 SUPPLY PATH,PVAV_POD_2
   #Components on Supply Air Path,1
   Supply Air Path Component,1,AIRLOOPHVAC:ZONESPLITTER,AIR LOOP HVAC ZONE SPLITTER 2,PVAV_POD_2
     #Outlet Nodes on Supply Air Path Component,5
     Supply Air Path Component Nodes,1,AIRLOOPHVAC:ZONESPLITTER,AIR LOOP HVAC ZONE SPLITTER 2,NODE 78,NODE 91,PVAV_POD_2
     Supply Air Path Component Nodes,2,AIRLOOPHVAC:ZONESPLITTER,AIR LOOP HVAC ZONE SPLITTER 2,NODE 78,NODE 96,PVAV_POD_2
     Supply Air Path Component Nodes,3,AIRLOOPHVAC:ZONESPLITTER,AIR LOOP HVAC ZONE SPLITTER 2,NODE 78,NODE 101,PVAV_POD_2
     Supply Air Path Component Nodes,4,AIRLOOPHVAC:ZONESPLITTER,AIR LOOP HVAC ZONE SPLITTER 2,NODE 78,NODE 106,PVAV_POD_2
     Supply Air Path Component Nodes,5,AIRLOOPHVAC:ZONESPLITTER,AIR LOOP HVAC ZONE SPLITTER 2,NODE 78,NODE 111,PVAV_POD_2
! <#Nodes on Supply Air Path>,<Number of Nodes>
! <Supply Air Path Node>,<Node Type>,<Node Count>,<Node Name>,<AirLoopHVAC Name>
#Nodes on Supply Air Path,6
   Supply Air Path Node,Inlet Node,1,NODE 78,PVAV_POD_2
   Supply Air Path Node,Outlet Node,2,NODE 91,PVAV_POD_2
   Supply Air Path Node,Outlet Node,3,NODE 96,PVAV_POD_2
   Supply Air Path Node,Outlet Node,4,NODE 101,PVAV_POD_2
   Supply Air Path Node,Outlet Node,5,NODE 106,PVAV_POD_2
   Supply Air Path Node,Outlet Node,6,NODE 111,PVAV_POD_2
 Supply Air Path,7,PVAV_POD_3 NODE 114 SUPPLY PATH,PVAV_POD_3
   #Components on Supply Air Path,1
   Supply Air Path Component,1,AIRLOOPHVAC:ZONESPLITTER,AIR LOOP HVAC ZONE SPLITTER 3,PVAV_POD_3
     #Outlet Nodes on Supply Air Path Component,5
     Supply Air Path Component Nodes,1,AIRLOOPHVAC:ZONESPLITTER,AIR LOOP HVAC ZONE SPLITTER 3,NODE 114,NODE 127,PVAV_POD_3
     Supply Air Path Component Nodes,2,AIRLOOPHVAC:ZONESPLITTER,AIR LOOP HVAC ZONE SPLITTER 3,NODE 114,NODE 132,PVAV_POD_3
     Supply Air Path Component Nodes,3,AIRLOOPHVAC:ZONESPLITTER,AIR LOOP HVAC ZONE SPLITTER 3,NODE 114,NODE 137,PVAV_POD_3
     Supply Air Path Component Nodes,4,AIRLOOPHVAC:ZONESPLITTER,AIR LOOP HVAC ZONE SPLITTER 3,NODE 114,NODE 142,PVAV_POD_3
     Supply Air Path Component Nodes,5,AIRLOOPHVAC:ZONESPLITTER,AIR LOOP HVAC ZONE SPLITTER 3,NODE 114,NODE 147,PVAV_POD_3
! <#Nodes on Supply Air Path>,<Number of Nodes>
! <Supply Air Path Node>,<Node Type>,<Node Count>,<Node Name>,<AirLoopHVAC Name>
#Nodes on Supply Air Path,6
   Supply Air Path Node,Inlet Node,1,NODE 114,PVAV_POD_3
   Supply Air Path Node,Outlet Node,2,NODE 127,PVAV_POD_3
   Supply Air Path Node,Outlet Node,3,NODE 132,PVAV_POD_3
   Supply Air Path Node,Outlet Node,4,NODE 137,PVAV_POD_3
   Supply Air Path Node,Outlet Node,5,NODE 142,PVAV_POD_3
   Supply Air Path Node,Outlet Node,6,NODE 147,PVAV_POD_3
! ===============================================================
! <#Return Air Paths>,<Number of Return Air Paths>
 #Return Air Paths,7
! <Return Air Path>,<Return Air Path Count>,<Return Air Path Name>,<AirLoopHVAC Name>
! <#Components on Return Air Path>,<Number of Components>
! <Return Air Path Component>,<Component Count>,<Component Type>,<Component Name>,<AirLoopHVAC Name>
! <#Inlet Nodes on Return Air Path Component>,<Number of Nodes>
! <Return Air Path Component Nodes>,<Node Count>,<Component Type>,<Component Name>,<Inlet Node Name>,<Outlet Node Name>,<AirLoopHVAC Name>
 Return Air Path,1,CAFETERIA_ZN_1_FLR_1 ZN PSZ-AC_2-7 RETURN PATH,CAFETERIA_ZN_1_FLR_1 ZN PSZ-AC_2-7
   #Components on Return Air Path,1
   Return Air Path Component,1,AIRLOOPHVAC:ZONEMIXER,AIR LOOP HVAC ZONE MIXER 7,CAFETERIA_ZN_1_FLR_1 ZN PSZ-AC_2-7
     #Inlet Nodes on Return Air Path Component,1
     Return Air Path Component Nodes,1,AIRLOOPHVAC:ZONEMIXER,AIR LOOP HVAC ZONE MIXER 7,NODE 222,NODE 217,CAFETERIA_ZN_1_FLR_1 ZN PSZ-AC_2-7
! <#Nodes on Return Air Path>,<Number of Nodes>
! <Return Air Path Node>,<Node Type>,<Node Count>,<Node Name>,<AirLoopHVAC Name>
   #Nodes on Return Air Path,2
   Return Air Path Node,Outlet Node,1,NODE 217,CAFETERIA_ZN_1_FLR_1 ZN PSZ-AC_2-7
   Return Air Path Node,Inlet Node,2,NODE 222,CAFETERIA_ZN_1_FLR_1 ZN PSZ-AC_2-7
 Return Air Path,2,GYM_ZN_1_FLR_1 ZN PSZ-AC_2-5 RETURN PATH,GYM_ZN_1_FLR_1 ZN PSZ-AC_2-5
   #Components on Return Air Path,1
   Return Air Path Component,1,AIRLOOPHVAC:ZONEMIXER,AIR LOOP HVAC ZONE MIXER 6,GYM_ZN_1_FLR_1 ZN PSZ-AC_2-5
     #Inlet Nodes on Return Air Path Component,1
     Return Air Path Component Nodes,1,AIRLOOPHVAC:ZONEMIXER,AIR LOOP HVAC ZONE MIXER 6,NODE 212,NODE 207,GYM_ZN_1_FLR_1 ZN PSZ-AC_2-5
! <#Nodes on Return Air Path>,<Number of Nodes>
! <Return Air Path Node>,<Node Type>,<Node Count>,<Node Name>,<AirLoopHVAC Name>
   #Nodes on Return Air Path,2
   Return Air Path Node,Outlet Node,1,NODE 207,GYM_ZN_1_FLR_1 ZN PSZ-AC_2-5
   Return Air Path Node,Inlet Node,2,NODE 212,GYM_ZN_1_FLR_1 ZN PSZ-AC_2-5
 Return Air Path,3,KITCHEN_ZN_1_FLR_1 ZN PSZ-AC_1-6 RETURN PATH,KITCHEN_ZN_1_FLR_1 ZN PSZ-AC_1-6
   #Components on Return Air Path,1
   Return Air Path Component,1,AIRLOOPHVAC:ZONEMIXER,AIR LOOP HVAC ZONE MIXER 5,KITCHEN_ZN_1_FLR_1 ZN PSZ-AC_1-6
     #Inlet Nodes on Return Air Path Component,1
     Return Air Path Component Nodes,1,AIRLOOPHVAC:ZONEMIXER,AIR LOOP HVAC ZONE MIXER 5,NODE 202,NODE 197,KITCHEN_ZN_1_FLR_1 ZN PSZ-AC_1-6
! <#Nodes on Return Air Path>,<Number of Nodes>
! <Return Air Path Node>,<Node Type>,<Node Count>,<Node Name>,<AirLoopHVAC Name>
   #Nodes on Return Air Path,2
   Return Air Path Node,Outlet Node,1,NODE 197,KITCHEN_ZN_1_FLR_1 ZN PSZ-AC_1-6
   Return Air Path Node,Inlet Node,2,NODE 202,KITCHEN_ZN_1_FLR_1 ZN PSZ-AC_1-6
 Return Air Path,4,PVAV_OTHER RETURN PATH,PVAV_OTHER
   #Components on Return Air Path,1
   Return Air Path Component,1,AIRLOOPHVAC:ZONEMIXER,AIR LOOP HVAC ZONE MIXER 4,PVAV_OTHER
     #Inlet Nodes on Return Air Path Component,7
     Return Air Path Component Nodes,1,AIRLOOPHVAC:ZONEMIXER,AIR LOOP HVAC ZONE MIXER 4,NODE 162,NODE 151,PVAV_OTHER
     Return Air Path Component Nodes,2,AIRLOOPHVAC:ZONEMIXER,AIR LOOP HVAC ZONE MIXER 4,NODE 167,NODE 151,PVAV_OTHER
     Return Air Path Component Nodes,3,AIRLOOPHVAC:ZONEMIXER,AIR LOOP HVAC ZONE MIXER 4,NODE 172,NODE 151,PVAV_OTHER
     Return Air Path Component Nodes,4,AIRLOOPHVAC:ZONEMIXER,AIR LOOP HVAC ZONE MIXER 4,NODE 177,NODE 151,PVAV_OTHER
     Return Air Path Component Nodes,5,AIRLOOPHVAC:ZONEMIXER,AIR LOOP HVAC ZONE MIXER 4,NODE 182,NODE 151,PVAV_OTHER
     Return Air Path Component Nodes,6,AIRLOOPHVAC:ZONEMIXER,AIR LOOP HVAC ZONE MIXER 4,NODE 187,NODE 151,PVAV_OTHER
     Return Air Path Component Nodes,7,AIRLOOPHVAC:ZONEMIXER,AIR LOOP HVAC ZONE MIXER 4,NODE 192,NODE 151,PVAV_OTHER
! <#Nodes on Return Air Path>,<Number of Nodes>
! <Return Air Path Node>,<Node Type>,<Node Count>,<Node Name>,<AirLoopHVAC Name>
   #Nodes on Return Air Path,8
   Return Air Path Node,Outlet Node,1,NODE 151,PVAV_OTHER
   Return Air Path Node,Inlet Node,2,NODE 162,PVAV_OTHER
   Return Air Path Node,Inlet Node,3,NODE 167,PVAV_OTHER
   Return Air Path Node,Inlet Node,4,NODE 172,PVAV_OTHER
   Return Air Path Node,Inlet Node,5,NODE 177,PVAV_OTHER
   Return Air Path Node,Inlet Node,6,NODE 182,PVAV_OTHER
   Return Air Path Node,Inlet Node,7,NODE 187,PVAV_OTHER
   Return Air Path Node,Inlet Node,8,NODE 192,PVAV_OTHER
 Return Air Path,5,PVAV_POD_1 RETURN PATH,PVAV_POD_1
   #Components on Return Air Path,1
   Return Air Path Component,1,AIRLOOPHVAC:ZONEMIXER,AIR LOOP HVAC ZONE MIXER 1,PVAV_POD_1
     #Inlet Nodes on Return Air Path Component,5
     Return Air Path Component Nodes,1,AIRLOOPHVAC:ZONEMIXER,AIR LOOP HVAC ZONE MIXER 1,NODE 54,NODE 43,PVAV_POD_1
     Return Air Path Component Nodes,2,AIRLOOPHVAC:ZONEMIXER,AIR LOOP HVAC ZONE MIXER 1,NODE 59,NODE 43,PVAV_POD_1
     Return Air Path Component Nodes,3,AIRLOOPHVAC:ZONEMIXER,AIR LOOP HVAC ZONE MIXER 1,NODE 64,NODE 43,PVAV_POD_1
     Return Air Path Component Nodes,4,AIRLOOPHVAC:ZONEMIXER,AIR LOOP HVAC ZONE MIXER 1,NODE 69,NODE 43,PVAV_POD_1
     Return Air Path Component Nodes,5,AIRLOOPHVAC:ZONEMIXER,AIR LOOP HVAC ZONE MIXER 1,NODE 74,NODE 43,PVAV_POD_1
! <#Nodes on Return Air Path>,<Number of Nodes>
! <Return Air Path Node>,<Node Type>,<Node Count>,<Node Name>,<AirLoopHVAC Name>
   #Nodes on Return Air Path,6
   Return Air Path Node,Outlet Node,1,NODE 43,PVAV_POD_1
   Return Air Path Node,Inlet Node,2,NODE 54,PVAV_POD_1
   Return Air Path Node,Inlet Node,3,NODE 59,PVAV_POD_1
   Return Air Path Node,Inlet Node,4,NODE 64,PVAV_POD_1
   Return Air Path Node,Inlet Node,5,NODE 69,PVAV_POD_1
   Return Air Path Node,Inlet Node,6,NODE 74,PVAV_POD_1
 Return Air Path,6,PVAV_POD_2 RETURN PATH,PVAV_POD_2
   #Components on Return Air Path,1
   Return Air Path Component,1,AIRLOOPHVAC:ZONEMIXER,AIR LOOP HVAC ZONE MIXER 2,PVAV_POD_2
     #Inlet Nodes on Return Air Path Component,5
     Return Air Path Component Nodes,1,AIRLOOPHVAC:ZONEMIXER,AIR LOOP HVAC ZONE MIXER 2,NODE 90,NODE 79,PVAV_POD_2
     Return Air Path Component Nodes,2,AIRLOOPHVAC:ZONEMIXER,AIR LOOP HVAC ZONE MIXER 2,NODE 95,NODE 79,PVAV_POD_2
     Return Air Path Component Nodes,3,AIRLOOPHVAC:ZONEMIXER,AIR LOOP HVAC ZONE MIXER 2,NODE 100,NODE 79,PVAV_POD_2
     Return Air Path Component Nodes,4,AIRLOOPHVAC:ZONEMIXER,AIR LOOP HVAC ZONE MIXER 2,NODE 105,NODE 79,PVAV_POD_2
     Return Air Path Component Nodes,5,AIRLOOPHVAC:ZONEMIXER,AIR LOOP HVAC ZONE MIXER 2,NODE 110,NODE 79,PVAV_POD_2
! <#Nodes on Return Air Path>,<Number of Nodes>
! <Return Air Path Node>,<Node Type>,<Node Count>,<Node Name>,<AirLoopHVAC Name>
   #Nodes on Return Air Path,6
   Return Air Path Node,Outlet Node,1,NODE 79,PVAV_POD_2
   Return Air Path Node,Inlet Node,2,NODE 90,PVAV_POD_2
   Return Air Path Node,Inlet Node,3,NODE 95,PVAV_POD_2
   Return Air Path Node,Inlet Node,4,NODE 100,PVAV_POD_2
   Return Air Path Node,Inlet Node,5,NODE 105,PVAV_POD_2
   Return Air Path Node,Inlet Node,6,NODE 110,PVAV_POD_2
 Return Air Path,7,PVAV_POD_3 RETURN PATH,PVAV_POD_3
   #Components on Return Air Path,1
   Return Air Path Component,1,AIRLOOPHVAC:ZONEMIXER,AIR LOOP HVAC ZONE MIXER 3,PVAV_POD_3
     #Inlet Nodes on Return Air Path Component,5
     Return Air Path Component Nodes,1,AIRLOOPHVAC:ZONEMIXER,AIR LOOP HVAC ZONE MIXER 3,NODE 126,NODE 115,PVAV_POD_3
     Return Air Path Component Nodes,2,AIRLOOPHVAC:ZONEMIXER,AIR LOOP HVAC ZONE MIXER 3,NODE 131,NODE 115,PVAV_POD_3
     Return Air Path Component Nodes,3,AIRLOOPHVAC:ZONEMIXER,AIR LOOP HVAC ZONE MIXER 3,NODE 136,NODE 115,PVAV_POD_3
     Return Air Path Component Nodes,4,AIRLOOPHVAC:ZONEMIXER,AIR LOOP HVAC ZONE MIXER 3,NODE 141,NODE 115,PVAV_POD_3
     Return Air Path Component Nodes,5,AIRLOOPHVAC:ZONEMIXER,AIR LOOP HVAC ZONE MIXER 3,NODE 146,NODE 115,PVAV_POD_3
! <#Nodes on Return Air Path>,<Number of Nodes>
! <Return Air Path Node>,<Node Type>,<Node Count>,<Node Name>,<AirLoopHVAC Name>
   #Nodes on Return Air Path,6
   Return Air Path Node,Outlet Node,1,NODE 115,PVAV_POD_3
   Return Air Path Node,Inlet Node,2,NODE 126,PVAV_POD_3
   Return Air Path Node,Inlet Node,3,NODE 131,PVAV_POD_3
   Return Air Path Node,Inlet Node,4,NODE 136,PVAV_POD_3
   Return Air Path Node,Inlet Node,5,NODE 141,PVAV_POD_3
   Return Air Path Node,Inlet Node,6,NODE 146,PVAV_POD_3
! ===============================================================
! #Outdoor Air Nodes,<Number of Outdoor Air Nodes>
 #Outdoor Air Nodes,8
! <Outdoor Air Node>,<NodeNumber>,<Node Name>
 Outdoor Air Node,230,NODE 219
 Outdoor Air Node,231,NODE 209
 Outdoor Air Node,232,NODE 199
 Outdoor Air Node,233,NODE 157
 Outdoor Air Node,234,NODE 49
 Outdoor Air Node,235,NODE 85
 Outdoor Air Node,236,NODE 121
 Outdoor Air Node,237,MODEL OUTDOOR AIR NODE
! ===============================================================
! <#Component Sets>,<Number of Component Sets>
 #Component Sets,147
! <Component Set>,<Component Set Count>,<Parent Object Type>,<Parent Object Name>,<Component Type>,<Component Name>,<Inlet Node ID>,<Outlet Node ID>,<Description>
 Component Set,1,BRANCH,CAFETERIA_ZN_1_FLR_1 ZN PSZ-AC_2-7 MAIN BRANCH,AIRLOOPHVAC:OUTDOORAIRSYSTEM,CAFETERIA_ZN_1_FLR_1 ZN PSZ-AC_2-7 OA SYSTEM,NODE 214,NODE 221,Air Nodes
 Component Set,2,BRANCH,CAFETERIA_ZN_1_FLR_1 ZN PSZ-AC_2-7 MAIN BRANCH,AIRLOOPHVAC:UNITARYSYSTEM,CAFETERIA_ZN_1_FLR_1 ZN PSZ-AC_2-7 UNITARY AC,NODE 221,NODE 215,Air Nodes
 Component Set,3,BRANCH,GYM_ZN_1_FLR_1 ZN PSZ-AC_2-5 MAIN BRANCH,AIRLOOPHVAC:OUTDOORAIRSYSTEM,GYM_ZN_1_FLR_1 ZN PSZ-AC_2-5 OA SYSTEM,NODE 204,NODE 211,Air Nodes
 Component Set,4,BRANCH,GYM_ZN_1_FLR_1 ZN PSZ-AC_2-5 MAIN BRANCH,AIRLOOPHVAC:UNITARYSYSTEM,GYM_ZN_1_FLR_1 ZN PSZ-AC_2-5 UNITARY AC,NODE 211,NODE 205,Air Nodes
 Component Set,5,BRANCH,KITCHEN_ZN_1_FLR_1 ZN PSZ-AC_1-6 MAIN BRANCH,AIRLOOPHVAC:OUTDOORAIRSYSTEM,KITCHEN_ZN_1_FLR_1 ZN PSZ-AC_1-6 OA SYSTEM,NODE 194,NODE 201,Air Nodes
 Component Set,6,BRANCH,KITCHEN_ZN_1_FLR_1 ZN PSZ-AC_1-6 MAIN BRANCH,AIRLOOPHVAC:UNITARYSYSTEM,KITCHEN_ZN_1_FLR_1 ZN PSZ-AC_1-6 UNITARY AC,NODE 201,NODE 195,Air Nodes
 Component Set,7,BRANCH,PVAV_OTHER MAIN BRANCH,AIRLOOPHVAC:OUTDOORAIRSYSTEM,PVAV_OTHER OA SYSTEM,NODE 148,NODE 159,Air Nodes
 Component Set,8,BRANCH,PVAV_OTHER MAIN BRANCH,COILSYSTEM:COOLING:DX,PVAV_OTHER 2SPD DX CLG COIL COILSYSTEM,NODE 159,NODE 156,Air Nodes
 Component Set,9,BRANCH,PVAV_OTHER MAIN BRANCH,COIL:HEATING:WATER,PVAV_OTHER MAIN HTG COIL,NODE 156,NODE 155,Air Nodes
 Component Set,10,BRANCH,PVAV_OTHER MAIN BRANCH,FAN:VARIABLEVOLUME,PVAV_OTHER FAN,NODE 155,NODE 149,Air Nodes
 Component Set,11,BRANCH,PVAV_POD_1 MAIN BRANCH,AIRLOOPHVAC:OUTDOORAIRSYSTEM,PVAV_POD_1 OA SYSTEM,NODE 40,NODE 51,Air Nodes
 Component Set,12,BRANCH,PVAV_POD_1 MAIN BRANCH,COILSYSTEM:COOLING:DX,PVAV_POD_1 2SPD DX CLG COIL COILSYSTEM,NODE 51,NODE 48,Air Nodes
 Component Set,13,BRANCH,PVAV_POD_1 MAIN BRANCH,COIL:HEATING:WATER,PVAV_POD_1 MAIN HTG COIL,NODE 48,NODE 47,Air Nodes
 Component Set,14,BRANCH,PVAV_POD_1 MAIN BRANCH,FAN:VARIABLEVOLUME,PVAV_POD_1 FAN,NODE 47,NODE 41,Air Nodes
 Component Set,15,BRANCH,PVAV_POD_2 MAIN BRANCH,AIRLOOPHVAC:OUTDOORAIRSYSTEM,PVAV_POD_2 OA SYSTEM,NODE 76,NODE 87,Air Nodes
 Component Set,16,BRANCH,PVAV_POD_2 MAIN BRANCH,COILSYSTEM:COOLING:DX,PVAV_POD_2 2SPD DX CLG COIL COILSYSTEM,NODE 87,NODE 84,Air Nodes
 Component Set,17,BRANCH,PVAV_POD_2 MAIN BRANCH,COIL:HEATING:WATER,PVAV_POD_2 MAIN HTG COIL,NODE 84,NODE 83,Air Nodes
 Component Set,18,BRANCH,PVAV_POD_2 MAIN BRANCH,FAN:VARIABLEVOLUME,PVAV_POD_2 FAN,NODE 83,NODE 77,Air Nodes
 Component Set,19,BRANCH,PVAV_POD_3 MAIN BRANCH,AIRLOOPHVAC:OUTDOORAIRSYSTEM,PVAV_POD_3 OA SYSTEM,NODE 112,NODE 123,Air Nodes
 Component Set,20,BRANCH,PVAV_POD_3 MAIN BRANCH,COILSYSTEM:COOLING:DX,PVAV_POD_3 2SPD DX CLG COIL COILSYSTEM,NODE 123,NODE 120,Air Nodes
 Component Set,21,BRANCH,PVAV_POD_3 MAIN BRANCH,COIL:HEATING:WATER,PVAV_POD_3 MAIN HTG COIL,NODE 120,NODE 119,Air Nodes
 Component Set,22,BRANCH,PVAV_POD_3 MAIN BRANCH,FAN:VARIABLEVOLUME,PVAV_POD_3 FAN,NODE 119,NODE 113,Air Nodes
 Component Set,23,BRANCH,HOT WATER LOOP SUPPLY INLET BRANCH,PUMP:VARIABLESPEED,HOT WATER LOOP PUMP,NODE 26,NODE 32,Water Nodes
 Component Set,24,BRANCH,HOT WATER LOOP SUPPLY BRANCH 1,BOILER:HOTWATER,BOILER,NODE 28,NODE 33,Hot Water Nodes
 Component Set,25,BRANCH,HOT WATER LOOP SUPPLY BRANCH 2,PIPE:ADIABATIC,HOT WATER LOOP SUPPLY EQUIPMENT BYPASS,NODE 34,NODE 35,Pipe Nodes
 Component Set,26,BRANCH,HOT WATER LOOP SUPPLY OUTLET BRANCH,PIPE:ADIABATIC,HOT WATER LOOP SUPPLY OUTLET,NODE 37,NODE 27,Pipe Nodes
 Component Set,27,BRANCH,HOT WATER LOOP DEMAND INLET BRANCH,PIPE:ADIABATIC,HOT WATER LOOP DEMAND INLET,NODE 29,NODE 38,Pipe Nodes
 Component Set,28,BRANCH,HOT WATER LOOP DEMAND BRANCH 1,PIPE:ADIABATIC,HOT WATER LOOP COIL BYPASS,NODE 31,NODE 36,Pipe Nodes
 Component Set,29,BRANCH,HOT WATER LOOP DEMAND BRANCH 2,COIL:HEATING:WATER,PVAV_POD_1 MAIN HTG COIL,NODE 45,NODE 46,Water Nodes
 Component Set,30,BRANCH,HOT WATER LOOP DEMAND BRANCH 3,COIL:HEATING:WATER,CORNER_CLASS_1_POD_1_ZN_1_FLR_1 ZN REHEAT COIL,NODE 52,NODE 53,Water Nodes
 Component Set,31,BRANCH,HOT WATER LOOP DEMAND BRANCH 4,COIL:HEATING:WATER,MULT_CLASS_1_POD_1_ZN_1_FLR_1 ZN REHEAT COIL,NODE 56,NODE 57,Water Nodes
 Component Set,32,BRANCH,HOT WATER LOOP DEMAND BRANCH 5,COIL:HEATING:WATER,CORRIDOR_POD_1_ZN_1_FLR_1 ZN REHEAT COIL,NODE 61,NODE 62,Water Nodes
 Component Set,33,BRANCH,HOT WATER LOOP DEMAND BRANCH 6,COIL:HEATING:WATER,CORNER_CLASS_2_POD_1_ZN_1_FLR_1 ZN REHEAT COIL,NODE 66,NODE 67,Water Nodes
 Component Set,34,BRANCH,HOT WATER LOOP DEMAND BRANCH 7,COIL:HEATING:WATER,MULT_CLASS_2_POD_1_ZN_1_FLR_1 ZN REHEAT COIL,NODE 71,NODE 72,Water Nodes
 Component Set,35,BRANCH,HOT WATER LOOP DEMAND BRANCH 8,COIL:HEATING:WATER,PVAV_POD_2 MAIN HTG COIL,NODE 81,NODE 82,Water Nodes
 Component Set,36,BRANCH,HOT WATER LOOP DEMAND BRANCH 9,COIL:HEATING:WATER,MULT_CLASS_1_POD_2_ZN_1_FLR_1 ZN REHEAT COIL,NODE 88,NODE 89,Water Nodes
 Component Set,37,BRANCH,HOT WATER LOOP DEMAND BRANCH 10,COIL:HEATING:WATER,CORRIDOR_POD_2_ZN_1_FLR_1 ZN REHEAT COIL,NODE 92,NODE 93,Water Nodes
 Component Set,38,BRANCH,HOT WATER LOOP DEMAND BRANCH 11,COIL:HEATING:WATER,CORNER_CLASS_2_POD_2_ZN_1_FLR_1 ZN REHEAT COIL,NODE 97,NODE 98,Water Nodes
 Component Set,39,BRANCH,HOT WATER LOOP DEMAND BRANCH 12,COIL:HEATING:WATER,MULT_CLASS_2_POD_2_ZN_1_FLR_1 ZN REHEAT COIL,NODE 102,NODE 103,Water Nodes
 Component Set,40,BRANCH,HOT WATER LOOP DEMAND BRANCH 13,COIL:HEATING:WATER,CORNER_CLASS_1_POD_2_ZN_1_FLR_1 ZN REHEAT COIL,NODE 107,NODE 108,Water Nodes
 Component Set,41,BRANCH,HOT WATER LOOP DEMAND BRANCH 14,COIL:HEATING:WATER,PVAV_POD_3 MAIN HTG COIL,NODE 117,NODE 118,Water Nodes
 Component Set,42,BRANCH,HOT WATER LOOP DEMAND BRANCH 15,COIL:HEATING:WATER,CORNER_CLASS_1_POD_3_ZN_1_FLR_1 ZN REHEAT COIL,NODE 124,NODE 125,Water Nodes
 Component Set,43,BRANCH,HOT WATER LOOP DEMAND BRANCH 16,COIL:HEATING:WATER,MULT_CLASS_1_POD_3_ZN_1_FLR_1 ZN REHEAT COIL,NODE 128,NODE 129,Water Nodes
 Component Set,44,BRANCH,HOT WATER LOOP DEMAND BRANCH 17,COIL:HEATING:WATER,CORRIDOR_POD_3_ZN_1_FLR_1 ZN REHEAT COIL,NODE 133,NODE 134,Water Nodes
 Component Set,45,BRANCH,HOT WATER LOOP DEMAND BRANCH 18,COIL:HEATING:WATER,CORNER_CLASS_2_POD_3_ZN_1_FLR_1 ZN REHEAT COIL,NODE 138,NODE 139,Water Nodes
 Component Set,46,BRANCH,HOT WATER LOOP DEMAND BRANCH 19,COIL:HEATING:WATER,MULT_CLASS_2_POD_3_ZN_1_FLR_1 ZN REHEAT COIL,NODE 143,NODE 144,Water Nodes
 Component Set,47,BRANCH,HOT WATER LOOP DEMAND BRANCH 20,COIL:HEATING:WATER,PVAV_OTHER MAIN HTG COIL,NODE 153,NODE 154,Water Nodes
 Component Set,48,BRANCH,HOT WATER LOOP DEMAND BRANCH 21,COIL:HEATING:WATER,COMPUTER_CLASS_ZN_1_FLR_1 ZN REHEAT COIL,NODE 160,NODE 161,Water Nodes
 Component Set,49,BRANCH,HOT WATER LOOP DEMAND BRANCH 22,COIL:HEATING:WATER,MAIN_CORRIDOR_ZN_1_FLR_1 ZN REHEAT COIL,NODE 164,NODE 165,Water Nodes
 Component Set,50,BRANCH,HOT WATER LOOP DEMAND BRANCH 23,COIL:HEATING:WATER,LOBBY_ZN_1_FLR_1 ZN REHEAT COIL,NODE 169,NODE 170,Water Nodes
 Component Set,51,BRANCH,HOT WATER LOOP DEMAND BRANCH 24,COIL:HEATING:WATER,MECH_ZN_1_FLR_1 ZN REHEAT COIL,NODE 174,NODE 175,Water Nodes
 Component Set,52,BRANCH,HOT WATER LOOP DEMAND BRANCH 25,COIL:HEATING:WATER,BATH_ZN_1_FLR_1 ZN REHEAT COIL,NODE 179,NODE 180,Water Nodes
 Component Set,53,BRANCH,HOT WATER LOOP DEMAND BRANCH 26,COIL:HEATING:WATER,OFFICES_ZN_1_FLR_1 ZN REHEAT COIL,NODE 184,NODE 185,Water Nodes
 Component Set,54,BRANCH,HOT WATER LOOP DEMAND BRANCH 27,COIL:HEATING:WATER,LIBRARY_MEDIA_CENTER_ZN_1_FLR_1 ZN REHEAT COIL,NODE 189,NODE 190,Water Nodes
 Component Set,55,BRANCH,HOT WATER LOOP DEMAND BYPASS BRANCH,PIPE:ADIABATIC,HOT WATER LOOP DEMAND BYPASS PIPE,HOT WATER LOOP DEMAND BYPASS PIPE INLET NODE,HOT WATER LOOP DEMAND BYPASS PIPE OUTLET NODE,Pipe Nodes
 Component Set,56,BRANCH,HOT WATER LOOP DEMAND OUTLET BRANCH,PIPE:ADIABATIC,HOT WATER LOOP DEMAND OUTLET,NODE 39,NODE 30,Pipe Nodes
 Component Set,57,BRANCH,MAIN SERVICE WATER LOOP SUPPLY INLET BRANCH,PUMP:CONSTANTSPEED,MAIN SERVICE WATER LOOP CIRCULATOR PUMP,NODE 230,NODE 236,Water Nodes
 Component Set,58,BRANCH,MAIN SERVICE WATER LOOP SUPPLY BRANCH 1,WATERHEATER:MIXED,200GAL NATURAL GAS WATER HEATER - 200KBTU/HR,NODE 232,NODE 237,Use Side Water Nodes
 Component Set,59,BRANCH,MAIN SERVICE WATER LOOP SUPPLY BRANCH 2,PIPE:ADIABATIC,PIPE ADIABATIC 1,NODE 238,NODE 239,Pipe Nodes
 Component Set,60,BRANCH,MAIN SERVICE WATER LOOP SUPPLY OUTLET BRANCH,PIPE:ADIABATIC,PIPE ADIABATIC 3,NODE 241,NODE 231,Pipe Nodes
 Component Set,61,BRANCH,MAIN SERVICE WATER LOOP DEMAND INLET BRANCH,PIPE:ADIABATIC,MAIN SERVICE WATER LOOP DEMAND INLET PIPE,NODE 233,MAIN SERVICE WATER LOOP DEMAND INLET PIPE NODE,Pipe Nodes
 Component Set,62,BRANCH,MAIN SERVICE WATER LOOP DEMAND BRANCH 1,PIPE:ADIABATIC,PIPE ADIABATIC 2,NODE 235,NODE 240,Pipe Nodes
 Component Set,63,BRANCH,MAIN SERVICE WATER LOOP DEMAND BRANCH 2,WATERUSE:CONNECTIONS,MAIN WUC 1.7GPM AT 140F,NODE 243,NODE 244,DHW Nodes
 Component Set,64,BRANCH,MAIN SERVICE WATER LOOP DEMAND BRANCH 3,HEATEXCHANGER:FLUIDTOFLUID,HX FOR BOOSTER WATER HEATING,NODE 260,NODE 261,Loop Demand Side Plant Nodes
 Component Set,65,BRANCH,MAIN SERVICE WATER LOOP DEMAND BRANCH 3,PLANTCOMPONENT:TEMPERATURESOURCE,MAINS WATER MAKEUP FOR SWH BOOSTER,NODE 261,NODE 262,Chilled Water Nodes
 Component Set,66,BRANCH,MAIN SERVICE WATER LOOP DEMAND BYPASS BRANCH,PIPE:ADIABATIC,MAIN SERVICE WATER LOOP DEMAND BYPASS PIPE,MAIN SERVICE WATER LOOP DEMAND BYPASS PIPE INLET NODE,MAIN SERVICE WATER LOOP DEMAND BYPASS PIPE OUTLET NODE,Pipe Nodes
 Component Set,67,BRANCH,MAIN SERVICE WATER LOOP DEMAND OUTLET BRANCH,PIPE:ADIABATIC,PIPE ADIABATIC 4,NODE 242,NODE 234,Pipe Nodes
 Component Set,68,BRANCH,SERVICE WATER LOOP SUPPLY INLET BRANCH,HEATEXCHANGER:FLUIDTOFLUID,HX FOR BOOSTER WATER HEATING,NODE 245,NODE 259,Loop Supply Side Plant Nodes
 Component Set,69,BRANCH,SERVICE WATER LOOP SUPPLY INLET BRANCH,PUMP:VARIABLESPEED,BOOSTER WATER LOOP PUMP,NODE 259,NODE 251,Water Nodes
 Component Set,70,BRANCH,SERVICE WATER LOOP SUPPLY BRANCH 1,WATERHEATER:MIXED,6.0GAL ELECTRICITY BOOSTER WATER HEATER - 20KBTU/HR,NODE 247,NODE 252,Use Side Water Nodes
 Component Set,71,BRANCH,SERVICE WATER LOOP SUPPLY BRANCH 2,PIPE:ADIABATIC,PIPE ADIABATIC 5,NODE 253,NODE 254,Pipe Nodes
 Component Set,72,BRANCH,SERVICE WATER LOOP SUPPLY OUTLET BRANCH,PIPE:ADIABATIC,PIPE ADIABATIC 7,NODE 256,NODE 246,Pipe Nodes
 Component Set,73,BRANCH,SERVICE WATER LOOP DEMAND INLET BRANCH,PIPE:ADIABATIC,PIPE ADIABATIC 8,NODE 248,NODE 257,Pipe Nodes
 Component Set,74,BRANCH,SERVICE WATER LOOP DEMAND BRANCH 1,PIPE:ADIABATIC,PIPE ADIABATIC 6,NODE 250,NODE 255,Pipe Nodes
 Component Set,75,BRANCH,SERVICE WATER LOOP DEMAND BRANCH 2,WATERUSE:CONNECTIONS,WATER USE CONNECTIONS 1,NODE 263,NODE 264,DHW Nodes
 Component Set,76,BRANCH,SERVICE WATER LOOP DEMAND BYPASS BRANCH,PIPE:ADIABATIC,SERVICE WATER LOOP DEMAND BYPASS PIPE,SERVICE WATER LOOP DEMAND BYPASS PIPE INLET NODE,SERVICE WATER LOOP DEMAND BYPASS PIPE OUTLET NODE,Pipe Nodes
 Component Set,77,BRANCH,SERVICE WATER LOOP DEMAND OUTLET BRANCH,PIPE:ADIABATIC,PIPE ADIABATIC 9,NODE 258,NODE 249,Pipe Nodes
 Component Set,78,ZONEHVAC:AIRDISTRIBUTIONUNIT,ADU BATH_ZN_1_FLR_1 ZN VAV TERMINAL,AIRTERMINAL:SINGLEDUCT:VAV:REHEAT,BATH_ZN_1_FLR_1 ZN VAV TERMINAL,NODE 183,NODE 181,Air Nodes
 Component Set,79,ZONEHVAC:AIRDISTRIBUTIONUNIT,ADU CAFETERIA_ZN_1_FLR_1 ZN PSZ-AC_2-7 DIFFUSER,AIRTERMINAL:SINGLEDUCT:CONSTANTVOLUME:NOREHEAT,CAFETERIA_ZN_1_FLR_1 ZN PSZ-AC_2-7 DIFFUSER,NODE 223,NODE 218,Air Nodes
 Component Set,80,ZONEHVAC:AIRDISTRIBUTIONUNIT,ADU COMPUTER_CLASS_ZN_1_FLR_1 ZN VAV TERMINAL,AIRTERMINAL:SINGLEDUCT:VAV:REHEAT,COMPUTER_CLASS_ZN_1_FLR_1 ZN VAV TERMINAL,NODE 163,NODE 152,Air Nodes
 Component Set,81,ZONEHVAC:AIRDISTRIBUTIONUNIT,ADU CORNER_CLASS_1_POD_1_ZN_1_FLR_1 ZN VAV TERMINAL,AIRTERMINAL:SINGLEDUCT:VAV:REHEAT,CORNER_CLASS_1_POD_1_ZN_1_FLR_1 ZN VAV TERMINAL,NODE 55,NODE 44,Air Nodes
 Component Set,82,ZONEHVAC:AIRDISTRIBUTIONUNIT,ADU CORNER_CLASS_1_POD_2_ZN_1_FLR_1 ZN VAV TERMINAL,AIRTERMINAL:SINGLEDUCT:VAV:REHEAT,CORNER_CLASS_1_POD_2_ZN_1_FLR_1 ZN VAV TERMINAL,NODE 111,NODE 109,Air Nodes
 Component Set,83,ZONEHVAC:AIRDISTRIBUTIONUNIT,ADU CORNER_CLASS_1_POD_3_ZN_1_FLR_1 ZN VAV TERMINAL,AIRTERMINAL:SINGLEDUCT:VAV:REHEAT,CORNER_CLASS_1_POD_3_ZN_1_FLR_1 ZN VAV TERMINAL,NODE 127,NODE 116,Air Nodes
 Component Set,84,ZONEHVAC:AIRDISTRIBUTIONUNIT,ADU CORNER_CLASS_2_POD_1_ZN_1_FLR_1 ZN VAV TERMINAL,AIRTERMINAL:SINGLEDUCT:VAV:REHEAT,CORNER_CLASS_2_POD_1_ZN_1_FLR_1 ZN VAV TERMINAL,NODE 70,NODE 68,Air Nodes
 Component Set,85,ZONEHVAC:AIRDISTRIBUTIONUNIT,ADU CORNER_CLASS_2_POD_2_ZN_1_FLR_1 ZN VAV TERMINAL,AIRTERMINAL:SINGLEDUCT:VAV:REHEAT,CORNER_CLASS_2_POD_2_ZN_1_FLR_1 ZN VAV TERMINAL,NODE 101,NODE 99,Air Nodes
 Component Set,86,ZONEHVAC:AIRDISTRIBUTIONUNIT,ADU CORNER_CLASS_2_POD_3_ZN_1_FLR_1 ZN VAV TERMINAL,AIRTERMINAL:SINGLEDUCT:VAV:REHEAT,CORNER_CLASS_2_POD_3_ZN_1_FLR_1 ZN VAV TERMINAL,NODE 142,NODE 140,Air Nodes
 Component Set,87,ZONEHVAC:AIRDISTRIBUTIONUNIT,ADU CORRIDOR_POD_1_ZN_1_FLR_1 ZN VAV TERMINAL,AIRTERMINAL:SINGLEDUCT:VAV:REHEAT,CORRIDOR_POD_1_ZN_1_FLR_1 ZN VAV TERMINAL,NODE 65,NODE 63,Air Nodes
 Component Set,88,ZONEHVAC:AIRDISTRIBUTIONUNIT,ADU CORRIDOR_POD_2_ZN_1_FLR_1 ZN VAV TERMINAL,AIRTERMINAL:SINGLEDUCT:VAV:REHEAT,CORRIDOR_POD_2_ZN_1_FLR_1 ZN VAV TERMINAL,NODE 96,NODE 94,Air Nodes
 Component Set,89,ZONEHVAC:AIRDISTRIBUTIONUNIT,ADU CORRIDOR_POD_3_ZN_1_FLR_1 ZN VAV TERMINAL,AIRTERMINAL:SINGLEDUCT:VAV:REHEAT,CORRIDOR_POD_3_ZN_1_FLR_1 ZN VAV TERMINAL,NODE 137,NODE 135,Air Nodes
 Component Set,90,ZONEHVAC:AIRDISTRIBUTIONUNIT,ADU GYM_ZN_1_FLR_1 ZN PSZ-AC_2-5 DIFFUSER,AIRTERMINAL:SINGLEDUCT:CONSTANTVOLUME:NOREHEAT,GYM_ZN_1_FLR_1 ZN PSZ-AC_2-5 DIFFUSER,NODE 213,NODE 208,Air Nodes
 Component Set,91,ZONEHVAC:AIRDISTRIBUTIONUNIT,ADU KITCHEN_ZN_1_FLR_1 ZN PSZ-AC_1-6 DIFFUSER,AIRTERMINAL:SINGLEDUCT:CONSTANTVOLUME:NOREHEAT,KITCHEN_ZN_1_FLR_1 ZN PSZ-AC_1-6 DIFFUSER,NODE 203,NODE 198,Air Nodes
 Component Set,92,ZONEHVAC:AIRDISTRIBUTIONUNIT,ADU LIBRARY_MEDIA_CENTER_ZN_1_FLR_1 ZN VAV TERMINAL,AIRTERMINAL:SINGLEDUCT:VAV:REHEAT,LIBRARY_MEDIA_CENTER_ZN_1_FLR_1 ZN VAV TERMINAL,NODE 193,NODE 191,Air Nodes
 Component Set,93,ZONEHVAC:AIRDISTRIBUTIONUNIT,ADU LOBBY_ZN_1_FLR_1 ZN VAV TERMINAL,AIRTERMINAL:SINGLEDUCT:VAV:REHEAT,LOBBY_ZN_1_FLR_1 ZN VAV TERMINAL,NODE 173,NODE 171,Air Nodes
 Component Set,94,ZONEHVAC:AIRDISTRIBUTIONUNIT,ADU MAIN_CORRIDOR_ZN_1_FLR_1 ZN VAV TERMINAL,AIRTERMINAL:SINGLEDUCT:VAV:REHEAT,MAIN_CORRIDOR_ZN_1_FLR_1 ZN VAV TERMINAL,NODE 168,NODE 166,Air Nodes
 Component Set,95,ZONEHVAC:AIRDISTRIBUTIONUNIT,ADU MECH_ZN_1_FLR_1 ZN VAV TERMINAL,AIRTERMINAL:SINGLEDUCT:VAV:REHEAT,MECH_ZN_1_FLR_1 ZN VAV TERMINAL,NODE 178,NODE 176,Air Nodes
 Component Set,96,ZONEHVAC:AIRDISTRIBUTIONUNIT,ADU MULT_CLASS_1_POD_1_ZN_1_FLR_1 ZN VAV TERMINAL,AIRTERMINAL:SINGLEDUCT:VAV:REHEAT,MULT_CLASS_1_POD_1_ZN_1_FLR_1 ZN VAV TERMINAL,NODE 60,NODE 58,Air Nodes
 Component Set,97,ZONEHVAC:AIRDISTRIBUTIONUNIT,ADU MULT_CLASS_1_POD_2_ZN_1_FLR_1 ZN VAV TERMINAL,AIRTERMINAL:SINGLEDUCT:VAV:REHEAT,MULT_CLASS_1_POD_2_ZN_1_FLR_1 ZN VAV TERMINAL,NODE 91,NODE 80,Air Nodes
 Component Set,98,ZONEHVAC:AIRDISTRIBUTIONUNIT,ADU MULT_CLASS_1_POD_3_ZN_1_FLR_1 ZN VAV TERMINAL,AIRTERMINAL:SINGLEDUCT:VAV:REHEAT,MULT_CLASS_1_POD_3_ZN_1_FLR_1 ZN VAV TERMINAL,NODE 132,NODE 130,Air Nodes
 Component Set,99,ZONEHVAC:AIRDISTRIBUTIONUNIT,ADU MULT_CLASS_2_POD_1_ZN_1_FLR_1 ZN VAV TERMINAL,AIRTERMINAL:SINGLEDUCT:VAV:REHEAT,MULT_CLASS_2_POD_1_ZN_1_FLR_1 ZN VAV TERMINAL,NODE 75,NODE 73,Air Nodes
 Component Set,100,ZONEHVAC:AIRDISTRIBUTIONUNIT,ADU MULT_CLASS_2_POD_2_ZN_1_FLR_1 ZN VAV TERMINAL,AIRTERMINAL:SINGLEDUCT:VAV:REHEAT,MULT_CLASS_2_POD_2_ZN_1_FLR_1 ZN VAV TERMINAL,NODE 106,NODE 104,Air Nodes
 Component Set,101,ZONEHVAC:AIRDISTRIBUTIONUNIT,ADU MULT_CLASS_2_POD_3_ZN_1_FLR_1 ZN VAV TERMINAL,AIRTERMINAL:SINGLEDUCT:VAV:REHEAT,MULT_CLASS_2_POD_3_ZN_1_FLR_1 ZN VAV TERMINAL,NODE 147,NODE 145,Air Nodes
 Component Set,102,ZONEHVAC:AIRDISTRIBUTIONUNIT,ADU OFFICES_ZN_1_FLR_1 ZN VAV TERMINAL,AIRTERMINAL:SINGLEDUCT:VAV:REHEAT,OFFICES_ZN_1_FLR_1 ZN VAV TERMINAL,NODE 188,NODE 186,Air Nodes
 Component Set,103,AIRTERMINAL:SINGLEDUCT:VAV:REHEAT,BATH_ZN_1_FLR_1 ZN VAV TERMINAL,COIL:HEATING:WATER,BATH_ZN_1_FLR_1 ZN REHEAT COIL,BATH_ZN_1_FLR_1 ZN VAV TERMINAL DAMPER OUTLET,NODE 181,Air Nodes
 Component Set,104,AIRTERMINAL:SINGLEDUCT:VAV:REHEAT,COMPUTER_CLASS_ZN_1_FLR_1 ZN VAV TERMINAL,COIL:HEATING:WATER,COMPUTER_CLASS_ZN_1_FLR_1 ZN REHEAT COIL,COMPUTER_CLASS_ZN_1_FLR_1 ZN VAV TERMINAL DAMPER OUTLET,NODE 152,Air Nodes
 Component Set,105,AIRTERMINAL:SINGLEDUCT:VAV:REHEAT,CORNER_CLASS_1_POD_1_ZN_1_FLR_1 ZN VAV TERMINAL,COIL:HEATING:WATER,CORNER_CLASS_1_POD_1_ZN_1_FLR_1 ZN REHEAT COIL,CORNER_CLASS_1_POD_1_ZN_1_FLR_1 ZN VAV TERMINAL DAMPER OUTLET,NODE 44,Air Nodes
 Component Set,106,AIRTERMINAL:SINGLEDUCT:VAV:REHEAT,CORNER_CLASS_1_POD_2_ZN_1_FLR_1 ZN VAV TERMINAL,COIL:HEATING:WATER,CORNER_CLASS_1_POD_2_ZN_1_FLR_1 ZN REHEAT COIL,CORNER_CLASS_1_POD_2_ZN_1_FLR_1 ZN VAV TERMINAL DAMPER OUTLET,NODE 109,Air Nodes
 Component Set,107,AIRTERMINAL:SINGLEDUCT:VAV:REHEAT,CORNER_CLASS_1_POD_3_ZN_1_FLR_1 ZN VAV TERMINAL,COIL:HEATING:WATER,CORNER_CLASS_1_POD_3_ZN_1_FLR_1 ZN REHEAT COIL,CORNER_CLASS_1_POD_3_ZN_1_FLR_1 ZN VAV TERMINAL DAMPER OUTLET,NODE 116,Air Nodes
 Component Set,108,AIRTERMINAL:SINGLEDUCT:VAV:REHEAT,CORNER_CLASS_2_POD_1_ZN_1_FLR_1 ZN VAV TERMINAL,COIL:HEATING:WATER,CORNER_CLASS_2_POD_1_ZN_1_FLR_1 ZN REHEAT COIL,CORNER_CLASS_2_POD_1_ZN_1_FLR_1 ZN VAV TERMINAL DAMPER OUTLET,NODE 68,Air Nodes
 Component Set,109,AIRTERMINAL:SINGLEDUCT:VAV:REHEAT,CORNER_CLASS_2_POD_2_ZN_1_FLR_1 ZN VAV TERMINAL,COIL:HEATING:WATER,CORNER_CLASS_2_POD_2_ZN_1_FLR_1 ZN REHEAT COIL,CORNER_CLASS_2_POD_2_ZN_1_FLR_1 ZN VAV TERMINAL DAMPER OUTLET,NODE 99,Air Nodes
 Component Set,110,AIRTERMINAL:SINGLEDUCT:VAV:REHEAT,CORNER_CLASS_2_POD_3_ZN_1_FLR_1 ZN VAV TERMINAL,COIL:HEATING:WATER,CORNER_CLASS_2_POD_3_ZN_1_FLR_1 ZN REHEAT COIL,CORNER_CLASS_2_POD_3_ZN_1_FLR_1 ZN VAV TERMINAL DAMPER OUTLET,NODE 140,Air Nodes
 Component Set,111,AIRTERMINAL:SINGLEDUCT:VAV:REHEAT,CORRIDOR_POD_1_ZN_1_FLR_1 ZN VAV TERMINAL,COIL:HEATING:WATER,CORRIDOR_POD_1_ZN_1_FLR_1 ZN REHEAT COIL,CORRIDOR_POD_1_ZN_1_FLR_1 ZN VAV TERMINAL DAMPER OUTLET,NODE 63,Air Nodes
 Component Set,112,AIRTERMINAL:SINGLEDUCT:VAV:REHEAT,CORRIDOR_POD_2_ZN_1_FLR_1 ZN VAV TERMINAL,COIL:HEATING:WATER,CORRIDOR_POD_2_ZN_1_FLR_1 ZN REHEAT COIL,CORRIDOR_POD_2_ZN_1_FLR_1 ZN VAV TERMINAL DAMPER OUTLET,NODE 94,Air Nodes
 Component Set,113,AIRTERMINAL:SINGLEDUCT:VAV:REHEAT,CORRIDOR_POD_3_ZN_1_FLR_1 ZN VAV TERMINAL,COIL:HEATING:WATER,CORRIDOR_POD_3_ZN_1_FLR_1 ZN REHEAT COIL,CORRIDOR_POD_3_ZN_1_FLR_1 ZN VAV TERMINAL DAMPER OUTLET,NODE 135,Air Nodes
 Component Set,114,AIRTERMINAL:SINGLEDUCT:VAV:REHEAT,LIBRARY_MEDIA_CENTER_ZN_1_FLR_1 ZN VAV TERMINAL,COIL:HEATING:WATER,LIBRARY_MEDIA_CENTER_ZN_1_FLR_1 ZN REHEAT COIL,LIBRARY_MEDIA_CENTER_ZN_1_FLR_1 ZN VAV TERMINAL DAMPER OUTLET,NODE 191,Air Nodes
 Component Set,115,AIRTERMINAL:SINGLEDUCT:VAV:REHEAT,LOBBY_ZN_1_FLR_1 ZN VAV TERMINAL,COIL:HEATING:WATER,LOBBY_ZN_1_FLR_1 ZN REHEAT COIL,LOBBY_ZN_1_FLR_1 ZN VAV TERMINAL DAMPER OUTLET,NODE 171,Air Nodes
 Component Set,116,AIRTERMINAL:SINGLEDUCT:VAV:REHEAT,MAIN_CORRIDOR_ZN_1_FLR_1 ZN VAV TERMINAL,COIL:HEATING:WATER,MAIN_CORRIDOR_ZN_1_FLR_1 ZN REHEAT COIL,MAIN_CORRIDOR_ZN_1_FLR_1 ZN VAV TERMINAL DAMPER OUTLET,NODE 166,Air Nodes
 Component Set,117,AIRTERMINAL:SINGLEDUCT:VAV:REHEAT,MECH_ZN_1_FLR_1 ZN VAV TERMINAL,COIL:HEATING:WATER,MECH_ZN_1_FLR_1 ZN REHEAT COIL,MECH_ZN_1_FLR_1 ZN VAV TERMINAL DAMPER OUTLET,NODE 176,Air Nodes
 Component Set,118,AIRTERMINAL:SINGLEDUCT:VAV:REHEAT,MULT_CLASS_1_POD_1_ZN_1_FLR_1 ZN VAV TERMINAL,COIL:HEATING:WATER,MULT_CLASS_1_POD_1_ZN_1_FLR_1 ZN REHEAT COIL,MULT_CLASS_1_POD_1_ZN_1_FLR_1 ZN VAV TERMINAL DAMPER OUTLET,NODE 58,Air Nodes
 Component Set,119,AIRTERMINAL:SINGLEDUCT:VAV:REHEAT,MULT_CLASS_1_POD_2_ZN_1_FLR_1 ZN VAV TERMINAL,COIL:HEATING:WATER,MULT_CLASS_1_POD_2_ZN_1_FLR_1 ZN REHEAT COIL,MULT_CLASS_1_POD_2_ZN_1_FLR_1 ZN VAV TERMINAL DAMPER OUTLET,NODE 80,Air Nodes
 Component Set,120,AIRTERMINAL:SINGLEDUCT:VAV:REHEAT,MULT_CLASS_1_POD_3_ZN_1_FLR_1 ZN VAV TERMINAL,COIL:HEATING:WATER,MULT_CLASS_1_POD_3_ZN_1_FLR_1 ZN REHEAT COIL,MULT_CLASS_1_POD_3_ZN_1_FLR_1 ZN VAV TERMINAL DAMPER OUTLET,NODE 130,Air Nodes
 Component Set,121,AIRTERMINAL:SINGLEDUCT:VAV:REHEAT,MULT_CLASS_2_POD_1_ZN_1_FLR_1 ZN VAV TERMINAL,COIL:HEATING:WATER,MULT_CLASS_2_POD_1_ZN_1_FLR_1 ZN REHEAT COIL,MULT_CLASS_2_POD_1_ZN_1_FLR_1 ZN VAV TERMINAL DAMPER OUTLET,NODE 73,Air Nodes
 Component Set,122,AIRTERMINAL:SINGLEDUCT:VAV:REHEAT,MULT_CLASS_2_POD_2_ZN_1_FLR_1 ZN VAV TERMINAL,COIL:HEATING:WATER,MULT_CLASS_2_POD_2_ZN_1_FLR_1 ZN REHEAT COIL,MULT_CLASS_2_POD_2_ZN_1_FLR_1 ZN VAV TERMINAL DAMPER OUTLET,NODE 104,Air Nodes
 Component Set,123,AIRTERMINAL:SINGLEDUCT:VAV:REHEAT,MULT_CLASS_2_POD_3_ZN_1_FLR_1 ZN VAV TERMINAL,COIL:HEATING:WATER,MULT_CLASS_2_POD_3_ZN_1_FLR_1 ZN REHEAT COIL,MULT_CLASS_2_POD_3_ZN_1_FLR_1 ZN VAV TERMINAL DAMPER OUTLET,NODE 145,Air Nodes
 Component Set,124,AIRTERMINAL:SINGLEDUCT:VAV:REHEAT,OFFICES_ZN_1_FLR_1 ZN VAV TERMINAL,COIL:HEATING:WATER,OFFICES_ZN_1_FLR_1 ZN REHEAT COIL,OFFICES_ZN_1_FLR_1 ZN VAV TERMINAL DAMPER OUTLET,NODE 186,Air Nodes
 Component Set,125,AIRLOOPHVAC:OUTDOORAIRSYSTEM,CAFETERIA_ZN_1_FLR_1 ZN PSZ-AC_2-7 OA SYSTEM,OUTDOORAIR:MIXER,CAFETERIA_ZN_1_FLR_1 ZN PSZ-AC_2-7 OA SYSTEM OUTDOOR AIR MIXER,NODE 219,NODE 221,Air Nodes
 Component Set,126,AIRLOOPHVAC:OUTDOORAIRSYSTEM,GYM_ZN_1_FLR_1 ZN PSZ-AC_2-5 OA SYSTEM,OUTDOORAIR:MIXER,GYM_ZN_1_FLR_1 ZN PSZ-AC_2-5 OA SYSTEM OUTDOOR AIR MIXER,NODE 209,NODE 211,Air Nodes
 Component Set,127,AIRLOOPHVAC:OUTDOORAIRSYSTEM,KITCHEN_ZN_1_FLR_1 ZN PSZ-AC_1-6 OA SYSTEM,OUTDOORAIR:MIXER,KITCHEN_ZN_1_FLR_1 ZN PSZ-AC_1-6 OA SYSTEM OUTDOOR AIR MIXER,NODE 199,NODE 201,Air Nodes
 Component Set,128,AIRLOOPHVAC:OUTDOORAIRSYSTEM,PVAV_OTHER OA SYSTEM,OUTDOORAIR:MIXER,PVAV_OTHER OA SYSTEM OUTDOOR AIR MIXER,NODE 157,NODE 159,Air Nodes
 Component Set,129,AIRLOOPHVAC:OUTDOORAIRSYSTEM,PVAV_POD_1 OA SYSTEM,OUTDOORAIR:MIXER,PVAV_POD_1 OA SYSTEM OUTDOOR AIR MIXER,NODE 49,NODE 51,Air Nodes
 Component Set,130,AIRLOOPHVAC:OUTDOORAIRSYSTEM,PVAV_POD_2 OA SYSTEM,OUTDOORAIR:MIXER,PVAV_POD_2 OA SYSTEM OUTDOOR AIR MIXER,NODE 85,NODE 87,Air Nodes
 Component Set,131,AIRLOOPHVAC:OUTDOORAIRSYSTEM,PVAV_POD_3 OA SYSTEM,OUTDOORAIR:MIXER,PVAV_POD_3 OA SYSTEM OUTDOOR AIR MIXER,NODE 121,NODE 123,Air Nodes
 Component Set,132,AIRLOOPHVAC:UNITARYSYSTEM,CAFETERIA_ZN_1_FLR_1 ZN PSZ-AC_2-7 UNITARY AC,FAN:ONOFF,CAFETERIA_ZN_1_FLR_1 ZN PSZ-AC_2-7 FAN,CAFETERIA_ZN_1_FLR_1 ZN PSZ-AC_2-7 UNITARY AC HEATING COIL - FAN NODE,CAFETERIA_ZN_1_FLR_1 ZN PSZ-AC_2-7 UNITARY AC FAN - SUPPLEMENTAL COIL NODE,Air Nodes
 Component Set,133,AIRLOOPHVAC:UNITARYSYSTEM,GYM_ZN_1_FLR_1 ZN PSZ-AC_2-5 UNITARY AC,FAN:ONOFF,GYM_ZN_1_FLR_1 ZN PSZ-AC_2-5 FAN,GYM_ZN_1_FLR_1 ZN PSZ-AC_2-5 UNITARY AC HEATING COIL - FAN NODE,GYM_ZN_1_FLR_1 ZN PSZ-AC_2-5 UNITARY AC FAN - SUPPLEMENTAL COIL NODE,Air Nodes
 Component Set,134,AIRLOOPHVAC:UNITARYSYSTEM,KITCHEN_ZN_1_FLR_1 ZN PSZ-AC_1-6 UNITARY AC,FAN:ONOFF,KITCHEN_ZN_1_FLR_1 ZN PSZ-AC_1-6 FAN,KITCHEN_ZN_1_FLR_1 ZN PSZ-AC_1-6 UNITARY AC HEATING COIL - FAN NODE,KITCHEN_ZN_1_FLR_1 ZN PSZ-AC_1-6 UNITARY AC FAN - SUPPLEMENTAL COIL NODE,Air Nodes
 Component Set,135,AIRLOOPHVAC:UNITARYSYSTEM,CAFETERIA_ZN_1_FLR_1 ZN PSZ-AC_2-7 UNITARY AC,COIL:HEATING:ELECTRIC,CAFETERIA_ZN_1_FLR_1 ZN PSZ-AC_2-7 NO HEAT,CAFETERIA_ZN_1_FLR_1 ZN PSZ-AC_2-7 UNITARY AC FAN - SUPPLEMENTAL COIL NODE,NODE 215,Air Nodes
 Component Set,136,AIRLOOPHVAC:UNITARYSYSTEM,GYM_ZN_1_FLR_1 ZN PSZ-AC_2-5 UNITARY AC,COIL:HEATING:ELECTRIC,GYM_ZN_1_FLR_1 ZN PSZ-AC_2-5 NO HEAT,GYM_ZN_1_FLR_1 ZN PSZ-AC_2-5 UNITARY AC FAN - SUPPLEMENTAL COIL NODE,NODE 205,Air Nodes
 Component Set,137,AIRLOOPHVAC:UNITARYSYSTEM,KITCHEN_ZN_1_FLR_1 ZN PSZ-AC_1-6 UNITARY AC,COIL:HEATING:ELECTRIC,KITCHEN_ZN_1_FLR_1 ZN PSZ-AC_1-6 NO HEAT,KITCHEN_ZN_1_FLR_1 ZN PSZ-AC_1-6 UNITARY AC FAN - SUPPLEMENTAL COIL NODE,NODE 195,Air Nodes
 Component Set,138,AIRLOOPHVAC:UNITARYSYSTEM,CAFETERIA_ZN_1_FLR_1 ZN PSZ-AC_2-7 UNITARY AC,COIL:HEATING:FUEL,CAFETERIA_ZN_1_FLR_1 ZN PSZ-AC_2-7 GAS HTG COIL,CAFETERIA_ZN_1_FLR_1 ZN PSZ-AC_2-7 UNITARY AC COOLING COIL - HEATING COIL NODE,CAFETERIA_ZN_1_FLR_1 ZN PSZ-AC_2-7 UNITARY AC HEATING COIL - FAN NODE,Air Nodes
 Component Set,139,AIRLOOPHVAC:UNITARYSYSTEM,GYM_ZN_1_FLR_1 ZN PSZ-AC_2-5 UNITARY AC,COIL:HEATING:FUEL,GYM_ZN_1_FLR_1 ZN PSZ-AC_2-5 GAS HTG COIL,GYM_ZN_1_FLR_1 ZN PSZ-AC_2-5 UNITARY AC COOLING COIL - HEATING COIL NODE,GYM_ZN_1_FLR_1 ZN PSZ-AC_2-5 UNITARY AC HEATING COIL - FAN NODE,Air Nodes
 Component Set,140,AIRLOOPHVAC:UNITARYSYSTEM,KITCHEN_ZN_1_FLR_1 ZN PSZ-AC_1-6 UNITARY AC,COIL:HEATING:FUEL,KITCHEN_ZN_1_FLR_1 ZN PSZ-AC_1-6 GAS HTG COIL,KITCHEN_ZN_1_FLR_1 ZN PSZ-AC_1-6 UNITARY AC COOLING COIL - HEATING COIL NODE,KITCHEN_ZN_1_FLR_1 ZN PSZ-AC_1-6 UNITARY AC HEATING COIL - FAN NODE,Air Nodes
 Component Set,141,AIRLOOPHVAC:UNITARYSYSTEM,CAFETERIA_ZN_1_FLR_1 ZN PSZ-AC_2-7 UNITARY AC,COIL:COOLING:DX:TWOSPEED,CAFETERIA_ZN_1_FLR_1 ZN PSZ-AC_2-7 2SPD DX AC CLG COIL,NODE 221,CAFETERIA_ZN_1_FLR_1 ZN PSZ-AC_2-7 UNITARY AC COOLING COIL - HEATING COIL NODE,Air Nodes
 Component Set,142,AIRLOOPHVAC:UNITARYSYSTEM,GYM_ZN_1_FLR_1 ZN PSZ-AC_2-5 UNITARY AC,COIL:COOLING:DX:TWOSPEED,GYM_ZN_1_FLR_1 ZN PSZ-AC_2-5 2SPD DX AC CLG COIL,NODE 211,GYM_ZN_1_FLR_1 ZN PSZ-AC_2-5 UNITARY AC COOLING COIL - HEATING COIL NODE,Air Nodes
 Component Set,143,AIRLOOPHVAC:UNITARYSYSTEM,KITCHEN_ZN_1_FLR_1 ZN PSZ-AC_1-6 UNITARY AC,COIL:COOLING:DX:TWOSPEED,KITCHEN_ZN_1_FLR_1 ZN PSZ-AC_1-6 2SPD DX AC CLG COIL,NODE 201,KITCHEN_ZN_1_FLR_1 ZN PSZ-AC_1-6 UNITARY AC COOLING COIL - HEATING COIL NODE,Air Nodes
 Component Set,144,COILSYSTEM:COOLING:DX,PVAV_OTHER 2SPD DX CLG COIL COILSYSTEM,COIL:COOLING:DX:TWOSPEED,PVAV_OTHER 2SPD DX CLG COIL,NODE 159,NODE 156,Air Nodes
 Component Set,145,COILSYSTEM:COOLING:DX,PVAV_POD_1 2SPD DX CLG COIL COILSYSTEM,COIL:COOLING:DX:TWOSPEED,PVAV_POD_1 2SPD DX CLG COIL,NODE 51,NODE 48,Air Nodes
 Component Set,146,COILSYSTEM:COOLING:DX,PVAV_POD_2 2SPD DX CLG COIL COILSYSTEM,COIL:COOLING:DX:TWOSPEED,PVAV_POD_2 2SPD DX CLG COIL,NODE 87,NODE 84,Air Nodes
 Component Set,147,COILSYSTEM:COOLING:DX,PVAV_POD_3 2SPD DX CLG COIL COILSYSTEM,COIL:COOLING:DX:TWOSPEED,PVAV_POD_3 2SPD DX CLG COIL,NODE 123,NODE 120,Air Nodes
! ===============================================================
! <# Plant Loops>,<Number of Plant Loops>
 #Plant Loops,3
! <Plant Loop>,<Plant Loop Name>,<Loop Type>,<Inlet Node Name>,<Outlet Node Name>,<Branch List>,<Connector List>
! <Plant Loop Connector>,<Connector Type>,<Connector Name>,<Loop Name>,<Loop Type>,<Number of Inlets/Outlets>
! <Plant Loop Connector Branches>,<Connector Node Count>,<Connector Type>,<Connector Name>,<Inlet Branch>,<Outlet Branch>,<Loop Name>,<Loop Type>
! <Plant Loop Connector Nodes>,<Connector Node Count>,<Connector Type>,<Connector Name>,<Inlet Node>,<Outlet Node>,<Loop Name>,<Loop Type>
! <Plant Loop Supply Connection>,<Plant Loop Name>,<Supply Side Outlet Node Name>,<Demand Side Inlet Node Name>
! <Plant Loop Return Connection>,<Plant Loop Name>,<Demand Side Outlet Node Name>,<Supply Side Inlet Node Name>
 Plant Loop,HOT WATER LOOP,Demand,NODE 29,NODE 30,HOT WATER LOOP DEMAND BRANCHES,HOT WATER LOOP DEMAND CONNECTOR LIST
   Plant Loop Connector,Splitter,HOT WATER LOOP DEMAND SPLITTER,HOT WATER LOOP,Demand,28
     Plant Loop Connector Branches,1,Splitter,HOT WATER LOOP DEMAND SPLITTER,HOT WATER LOOP DEMAND INLET BRANCH,HOT WATER LOOP DEMAND BRANCH 1,HOT WATER LOOP,Demand
     Plant Loop Connector Nodes,   1,Splitter,HOT WATER LOOP DEMAND SPLITTER,NODE 38,NODE 31,HOT WATER LOOP,Demand
     Plant Loop Connector Branches,2,Splitter,HOT WATER LOOP DEMAND SPLITTER,HOT WATER LOOP DEMAND INLET BRANCH,HOT WATER LOOP DEMAND BRANCH 2,HOT WATER LOOP,Demand
     Plant Loop Connector Nodes,   2,Splitter,HOT WATER LOOP DEMAND SPLITTER,NODE 38,NODE 45,HOT WATER LOOP,Demand
     Plant Loop Connector Branches,3,Splitter,HOT WATER LOOP DEMAND SPLITTER,HOT WATER LOOP DEMAND INLET BRANCH,HOT WATER LOOP DEMAND BRANCH 3,HOT WATER LOOP,Demand
     Plant Loop Connector Nodes,   3,Splitter,HOT WATER LOOP DEMAND SPLITTER,NODE 38,NODE 52,HOT WATER LOOP,Demand
     Plant Loop Connector Branches,4,Splitter,HOT WATER LOOP DEMAND SPLITTER,HOT WATER LOOP DEMAND INLET BRANCH,HOT WATER LOOP DEMAND BRANCH 4,HOT WATER LOOP,Demand
     Plant Loop Connector Nodes,   4,Splitter,HOT WATER LOOP DEMAND SPLITTER,NODE 38,NODE 56,HOT WATER LOOP,Demand
     Plant Loop Connector Branches,5,Splitter,HOT WATER LOOP DEMAND SPLITTER,HOT WATER LOOP DEMAND INLET BRANCH,HOT WATER LOOP DEMAND BRANCH 5,HOT WATER LOOP,Demand
     Plant Loop Connector Nodes,   5,Splitter,HOT WATER LOOP DEMAND SPLITTER,NODE 38,NODE 61,HOT WATER LOOP,Demand
     Plant Loop Connector Branches,6,Splitter,HOT WATER LOOP DEMAND SPLITTER,HOT WATER LOOP DEMAND INLET BRANCH,HOT WATER LOOP DEMAND BRANCH 6,HOT WATER LOOP,Demand
     Plant Loop Connector Nodes,   6,Splitter,HOT WATER LOOP DEMAND SPLITTER,NODE 38,NODE 66,HOT WATER LOOP,Demand
     Plant Loop Connector Branches,7,Splitter,HOT WATER LOOP DEMAND SPLITTER,HOT WATER LOOP DEMAND INLET BRANCH,HOT WATER LOOP DEMAND BRANCH 7,HOT WATER LOOP,Demand
     Plant Loop Connector Nodes,   7,Splitter,HOT WATER LOOP DEMAND SPLITTER,NODE 38,NODE 71,HOT WATER LOOP,Demand
     Plant Loop Connector Branches,8,Splitter,HOT WATER LOOP DEMAND SPLITTER,HOT WATER LOOP DEMAND INLET BRANCH,HOT WATER LOOP DEMAND BRANCH 8,HOT WATER LOOP,Demand
     Plant Loop Connector Nodes,   8,Splitter,HOT WATER LOOP DEMAND SPLITTER,NODE 38,NODE 81,HOT WATER LOOP,Demand
     Plant Loop Connector Branches,9,Splitter,HOT WATER LOOP DEMAND SPLITTER,HOT WATER LOOP DEMAND INLET BRANCH,HOT WATER LOOP DEMAND BRANCH 9,HOT WATER LOOP,Demand
     Plant Loop Connector Nodes,   9,Splitter,HOT WATER LOOP DEMAND SPLITTER,NODE 38,NODE 88,HOT WATER LOOP,Demand
     Plant Loop Connector Branches,10,Splitter,HOT WATER LOOP DEMAND SPLITTER,HOT WATER LOOP DEMAND INLET BRANCH,HOT WATER LOOP DEMAND BRANCH 10,HOT WATER LOOP,Demand
     Plant Loop Connector Nodes,   10,Splitter,HOT WATER LOOP DEMAND SPLITTER,NODE 38,NODE 92,HOT WATER LOOP,Demand
     Plant Loop Connector Branches,11,Splitter,HOT WATER LOOP DEMAND SPLITTER,HOT WATER LOOP DEMAND INLET BRANCH,HOT WATER LOOP DEMAND BRANCH 11,HOT WATER LOOP,Demand
     Plant Loop Connector Nodes,   11,Splitter,HOT WATER LOOP DEMAND SPLITTER,NODE 38,NODE 97,HOT WATER LOOP,Demand
     Plant Loop Connector Branches,12,Splitter,HOT WATER LOOP DEMAND SPLITTER,HOT WATER LOOP DEMAND INLET BRANCH,HOT WATER LOOP DEMAND BRANCH 12,HOT WATER LOOP,Demand
     Plant Loop Connector Nodes,   12,Splitter,HOT WATER LOOP DEMAND SPLITTER,NODE 38,NODE 102,HOT WATER LOOP,Demand
     Plant Loop Connector Branches,13,Splitter,HOT WATER LOOP DEMAND SPLITTER,HOT WATER LOOP DEMAND INLET BRANCH,HOT WATER LOOP DEMAND BRANCH 13,HOT WATER LOOP,Demand
     Plant Loop Connector Nodes,   13,Splitter,HOT WATER LOOP DEMAND SPLITTER,NODE 38,NODE 107,HOT WATER LOOP,Demand
     Plant Loop Connector Branches,14,Splitter,HOT WATER LOOP DEMAND SPLITTER,HOT WATER LOOP DEMAND INLET BRANCH,HOT WATER LOOP DEMAND BRANCH 14,HOT WATER LOOP,Demand
     Plant Loop Connector Nodes,   14,Splitter,HOT WATER LOOP DEMAND SPLITTER,NODE 38,NODE 117,HOT WATER LOOP,Demand
     Plant Loop Connector Branches,15,Splitter,HOT WATER LOOP DEMAND SPLITTER,HOT WATER LOOP DEMAND INLET BRANCH,HOT WATER LOOP DEMAND BRANCH 15,HOT WATER LOOP,Demand
     Plant Loop Connector Nodes,   15,Splitter,HOT WATER LOOP DEMAND SPLITTER,NODE 38,NODE 124,HOT WATER LOOP,Demand
     Plant Loop Connector Branches,16,Splitter,HOT WATER LOOP DEMAND SPLITTER,HOT WATER LOOP DEMAND INLET BRANCH,HOT WATER LOOP DEMAND BRANCH 16,HOT WATER LOOP,Demand
     Plant Loop Connector Nodes,   16,Splitter,HOT WATER LOOP DEMAND SPLITTER,NODE 38,NODE 128,HOT WATER LOOP,Demand
     Plant Loop Connector Branches,17,Splitter,HOT WATER LOOP DEMAND SPLITTER,HOT WATER LOOP DEMAND INLET BRANCH,HOT WATER LOOP DEMAND BRANCH 17,HOT WATER LOOP,Demand
     Plant Loop Connector Nodes,   17,Splitter,HOT WATER LOOP DEMAND SPLITTER,NODE 38,NODE 133,HOT WATER LOOP,Demand
     Plant Loop Connector Branches,18,Splitter,HOT WATER LOOP DEMAND SPLITTER,HOT WATER LOOP DEMAND INLET BRANCH,HOT WATER LOOP DEMAND BRANCH 18,HOT WATER LOOP,Demand
     Plant Loop Connector Nodes,   18,Splitter,HOT WATER LOOP DEMAND SPLITTER,NODE 38,NODE 138,HOT WATER LOOP,Demand
     Plant Loop Connector Branches,19,Splitter,HOT WATER LOOP DEMAND SPLITTER,HOT WATER LOOP DEMAND INLET BRANCH,HOT WATER LOOP DEMAND BRANCH 19,HOT WATER LOOP,Demand
     Plant Loop Connector Nodes,   19,Splitter,HOT WATER LOOP DEMAND SPLITTER,NODE 38,NODE 143,HOT WATER LOOP,Demand
     Plant Loop Connector Branches,20,Splitter,HOT WATER LOOP DEMAND SPLITTER,HOT WATER LOOP DEMAND INLET BRANCH,HOT WATER LOOP DEMAND BRANCH 20,HOT WATER LOOP,Demand
     Plant Loop Connector Nodes,   20,Splitter,HOT WATER LOOP DEMAND SPLITTER,NODE 38,NODE 153,HOT WATER LOOP,Demand
     Plant Loop Connector Branches,21,Splitter,HOT WATER LOOP DEMAND SPLITTER,HOT WATER LOOP DEMAND INLET BRANCH,HOT WATER LOOP DEMAND BRANCH 21,HOT WATER LOOP,Demand
     Plant Loop Connector Nodes,   21,Splitter,HOT WATER LOOP DEMAND SPLITTER,NODE 38,NODE 160,HOT WATER LOOP,Demand
     Plant Loop Connector Branches,22,Splitter,HOT WATER LOOP DEMAND SPLITTER,HOT WATER LOOP DEMAND INLET BRANCH,HOT WATER LOOP DEMAND BRANCH 22,HOT WATER LOOP,Demand
     Plant Loop Connector Nodes,   22,Splitter,HOT WATER LOOP DEMAND SPLITTER,NODE 38,NODE 164,HOT WATER LOOP,Demand
     Plant Loop Connector Branches,23,Splitter,HOT WATER LOOP DEMAND SPLITTER,HOT WATER LOOP DEMAND INLET BRANCH,HOT WATER LOOP DEMAND BRANCH 23,HOT WATER LOOP,Demand
     Plant Loop Connector Nodes,   23,Splitter,HOT WATER LOOP DEMAND SPLITTER,NODE 38,NODE 169,HOT WATER LOOP,Demand
     Plant Loop Connector Branches,24,Splitter,HOT WATER LOOP DEMAND SPLITTER,HOT WATER LOOP DEMAND INLET BRANCH,HOT WATER LOOP DEMAND BRANCH 24,HOT WATER LOOP,Demand
     Plant Loop Connector Nodes,   24,Splitter,HOT WATER LOOP DEMAND SPLITTER,NODE 38,NODE 174,HOT WATER LOOP,Demand
     Plant Loop Connector Branches,25,Splitter,HOT WATER LOOP DEMAND SPLITTER,HOT WATER LOOP DEMAND INLET BRANCH,HOT WATER LOOP DEMAND BRANCH 25,HOT WATER LOOP,Demand
     Plant Loop Connector Nodes,   25,Splitter,HOT WATER LOOP DEMAND SPLITTER,NODE 38,NODE 179,HOT WATER LOOP,Demand
     Plant Loop Connector Branches,26,Splitter,HOT WATER LOOP DEMAND SPLITTER,HOT WATER LOOP DEMAND INLET BRANCH,HOT WATER LOOP DEMAND BRANCH 26,HOT WATER LOOP,Demand
     Plant Loop Connector Nodes,   26,Splitter,HOT WATER LOOP DEMAND SPLITTER,NODE 38,NODE 184,HOT WATER LOOP,Demand
     Plant Loop Connector Branches,27,Splitter,HOT WATER LOOP DEMAND SPLITTER,HOT WATER LOOP DEMAND INLET BRANCH,HOT WATER LOOP DEMAND BRANCH 27,HOT WATER LOOP,Demand
     Plant Loop Connector Nodes,   27,Splitter,HOT WATER LOOP DEMAND SPLITTER,NODE 38,NODE 189,HOT WATER LOOP,Demand
     Plant Loop Connector Branches,28,Splitter,HOT WATER LOOP DEMAND SPLITTER,HOT WATER LOOP DEMAND INLET BRANCH,HOT WATER LOOP DEMAND BYPASS BRANCH,HOT WATER LOOP,Demand
     Plant Loop Connector Nodes,   28,Splitter,HOT WATER LOOP DEMAND SPLITTER,NODE 38,HOT WATER LOOP DEMAND BYPASS PIPE INLET NODE,HOT WATER LOOP,Demand
   Plant Loop Connector,Mixer,HOT WATER LOOP DEMAND MIXER,HOT WATER LOOP,Demand,28
     Plant Loop Connector Branches,1,Mixer,HOT WATER LOOP DEMAND MIXER,HOT WATER LOOP DEMAND BRANCH 1,HOT WATER LOOP DEMAND OUTLET BRANCH,HOT WATER LOOP,Demand
     Plant Loop Connector Nodes,   1,Mixer,HOT WATER LOOP DEMAND MIXER,NODE 36,NODE 39,HOT WATER LOOP,Demand
     Plant Loop Connector Branches,2,Mixer,HOT WATER LOOP DEMAND MIXER,HOT WATER LOOP DEMAND BRANCH 2,HOT WATER LOOP DEMAND OUTLET BRANCH,HOT WATER LOOP,Demand
     Plant Loop Connector Nodes,   2,Mixer,HOT WATER LOOP DEMAND MIXER,NODE 46,NODE 39,HOT WATER LOOP,Demand
     Plant Loop Connector Branches,3,Mixer,HOT WATER LOOP DEMAND MIXER,HOT WATER LOOP DEMAND BRANCH 3,HOT WATER LOOP DEMAND OUTLET BRANCH,HOT WATER LOOP,Demand
     Plant Loop Connector Nodes,   3,Mixer,HOT WATER LOOP DEMAND MIXER,NODE 53,NODE 39,HOT WATER LOOP,Demand
     Plant Loop Connector Branches,4,Mixer,HOT WATER LOOP DEMAND MIXER,HOT WATER LOOP DEMAND BRANCH 4,HOT WATER LOOP DEMAND OUTLET BRANCH,HOT WATER LOOP,Demand
     Plant Loop Connector Nodes,   4,Mixer,HOT WATER LOOP DEMAND MIXER,NODE 57,NODE 39,HOT WATER LOOP,Demand
     Plant Loop Connector Branches,5,Mixer,HOT WATER LOOP DEMAND MIXER,HOT WATER LOOP DEMAND BRANCH 5,HOT WATER LOOP DEMAND OUTLET BRANCH,HOT WATER LOOP,Demand
     Plant Loop Connector Nodes,   5,Mixer,HOT WATER LOOP DEMAND MIXER,NODE 62,NODE 39,HOT WATER LOOP,Demand
     Plant Loop Connector Branches,6,Mixer,HOT WATER LOOP DEMAND MIXER,HOT WATER LOOP DEMAND BRANCH 6,HOT WATER LOOP DEMAND OUTLET BRANCH,HOT WATER LOOP,Demand
     Plant Loop Connector Nodes,   6,Mixer,HOT WATER LOOP DEMAND MIXER,NODE 67,NODE 39,HOT WATER LOOP,Demand
     Plant Loop Connector Branches,7,Mixer,HOT WATER LOOP DEMAND MIXER,HOT WATER LOOP DEMAND BRANCH 7,HOT WATER LOOP DEMAND OUTLET BRANCH,HOT WATER LOOP,Demand
     Plant Loop Connector Nodes,   7,Mixer,HOT WATER LOOP DEMAND MIXER,NODE 72,NODE 39,HOT WATER LOOP,Demand
     Plant Loop Connector Branches,8,Mixer,HOT WATER LOOP DEMAND MIXER,HOT WATER LOOP DEMAND BRANCH 8,HOT WATER LOOP DEMAND OUTLET BRANCH,HOT WATER LOOP,Demand
     Plant Loop Connector Nodes,   8,Mixer,HOT WATER LOOP DEMAND MIXER,NODE 82,NODE 39,HOT WATER LOOP,Demand
     Plant Loop Connector Branches,9,Mixer,HOT WATER LOOP DEMAND MIXER,HOT WATER LOOP DEMAND BRANCH 9,HOT WATER LOOP DEMAND OUTLET BRANCH,HOT WATER LOOP,Demand
     Plant Loop Connector Nodes,   9,Mixer,HOT WATER LOOP DEMAND MIXER,NODE 89,NODE 39,HOT WATER LOOP,Demand
     Plant Loop Connector Branches,10,Mixer,HOT WATER LOOP DEMAND MIXER,HOT WATER LOOP DEMAND BRANCH 10,HOT WATER LOOP DEMAND OUTLET BRANCH,HOT WATER LOOP,Demand
     Plant Loop Connector Nodes,   10,Mixer,HOT WATER LOOP DEMAND MIXER,NODE 93,NODE 39,HOT WATER LOOP,Demand
     Plant Loop Connector Branches,11,Mixer,HOT WATER LOOP DEMAND MIXER,HOT WATER LOOP DEMAND BRANCH 11,HOT WATER LOOP DEMAND OUTLET BRANCH,HOT WATER LOOP,Demand
     Plant Loop Connector Nodes,   11,Mixer,HOT WATER LOOP DEMAND MIXER,NODE 98,NODE 39,HOT WATER LOOP,Demand
     Plant Loop Connector Branches,12,Mixer,HOT WATER LOOP DEMAND MIXER,HOT WATER LOOP DEMAND BRANCH 12,HOT WATER LOOP DEMAND OUTLET BRANCH,HOT WATER LOOP,Demand
     Plant Loop Connector Nodes,   12,Mixer,HOT WATER LOOP DEMAND MIXER,NODE 103,NODE 39,HOT WATER LOOP,Demand
     Plant Loop Connector Branches,13,Mixer,HOT WATER LOOP DEMAND MIXER,HOT WATER LOOP DEMAND BRANCH 13,HOT WATER LOOP DEMAND OUTLET BRANCH,HOT WATER LOOP,Demand
     Plant Loop Connector Nodes,   13,Mixer,HOT WATER LOOP DEMAND MIXER,NODE 108,NODE 39,HOT WATER LOOP,Demand
     Plant Loop Connector Branches,14,Mixer,HOT WATER LOOP DEMAND MIXER,HOT WATER LOOP DEMAND BRANCH 14,HOT WATER LOOP DEMAND OUTLET BRANCH,HOT WATER LOOP,Demand
     Plant Loop Connector Nodes,   14,Mixer,HOT WATER LOOP DEMAND MIXER,NODE 118,NODE 39,HOT WATER LOOP,Demand
     Plant Loop Connector Branches,15,Mixer,HOT WATER LOOP DEMAND MIXER,HOT WATER LOOP DEMAND BRANCH 15,HOT WATER LOOP DEMAND OUTLET BRANCH,HOT WATER LOOP,Demand
     Plant Loop Connector Nodes,   15,Mixer,HOT WATER LOOP DEMAND MIXER,NODE 125,NODE 39,HOT WATER LOOP,Demand
     Plant Loop Connector Branches,16,Mixer,HOT WATER LOOP DEMAND MIXER,HOT WATER LOOP DEMAND BRANCH 16,HOT WATER LOOP DEMAND OUTLET BRANCH,HOT WATER LOOP,Demand
     Plant Loop Connector Nodes,   16,Mixer,HOT WATER LOOP DEMAND MIXER,NODE 129,NODE 39,HOT WATER LOOP,Demand
     Plant Loop Connector Branches,17,Mixer,HOT WATER LOOP DEMAND MIXER,HOT WATER LOOP DEMAND BRANCH 17,HOT WATER LOOP DEMAND OUTLET BRANCH,HOT WATER LOOP,Demand
     Plant Loop Connector Nodes,   17,Mixer,HOT WATER LOOP DEMAND MIXER,NODE 134,NODE 39,HOT WATER LOOP,Demand
     Plant Loop Connector Branches,18,Mixer,HOT WATER LOOP DEMAND MIXER,HOT WATER LOOP DEMAND BRANCH 18,HOT WATER LOOP DEMAND OUTLET BRANCH,HOT WATER LOOP,Demand
     Plant Loop Connector Nodes,   18,Mixer,HOT WATER LOOP DEMAND MIXER,NODE 139,NODE 39,HOT WATER LOOP,Demand
     Plant Loop Connector Branches,19,Mixer,HOT WATER LOOP DEMAND MIXER,HOT WATER LOOP DEMAND BRANCH 19,HOT WATER LOOP DEMAND OUTLET BRANCH,HOT WATER LOOP,Demand
     Plant Loop Connector Nodes,   19,Mixer,HOT WATER LOOP DEMAND MIXER,NODE 144,NODE 39,HOT WATER LOOP,Demand
     Plant Loop Connector Branches,20,Mixer,HOT WATER LOOP DEMAND MIXER,HOT WATER LOOP DEMAND BRANCH 20,HOT WATER LOOP DEMAND OUTLET BRANCH,HOT WATER LOOP,Demand
     Plant Loop Connector Nodes,   20,Mixer,HOT WATER LOOP DEMAND MIXER,NODE 154,NODE 39,HOT WATER LOOP,Demand
     Plant Loop Connector Branches,21,Mixer,HOT WATER LOOP DEMAND MIXER,HOT WATER LOOP DEMAND BRANCH 21,HOT WATER LOOP DEMAND OUTLET BRANCH,HOT WATER LOOP,Demand
     Plant Loop Connector Nodes,   21,Mixer,HOT WATER LOOP DEMAND MIXER,NODE 161,NODE 39,HOT WATER LOOP,Demand
     Plant Loop Connector Branches,22,Mixer,HOT WATER LOOP DEMAND MIXER,HOT WATER LOOP DEMAND BRANCH 22,HOT WATER LOOP DEMAND OUTLET BRANCH,HOT WATER LOOP,Demand
     Plant Loop Connector Nodes,   22,Mixer,HOT WATER LOOP DEMAND MIXER,NODE 165,NODE 39,HOT WATER LOOP,Demand
     Plant Loop Connector Branches,23,Mixer,HOT WATER LOOP DEMAND MIXER,HOT WATER LOOP DEMAND BRANCH 23,HOT WATER LOOP DEMAND OUTLET BRANCH,HOT WATER LOOP,Demand
     Plant Loop Connector Nodes,   23,Mixer,HOT WATER LOOP DEMAND MIXER,NODE 170,NODE 39,HOT WATER LOOP,Demand
     Plant Loop Connector Branches,24,Mixer,HOT WATER LOOP DEMAND MIXER,HOT WATER LOOP DEMAND BRANCH 24,HOT WATER LOOP DEMAND OUTLET BRANCH,HOT WATER LOOP,Demand
     Plant Loop Connector Nodes,   24,Mixer,HOT WATER LOOP DEMAND MIXER,NODE 175,NODE 39,HOT WATER LOOP,Demand
     Plant Loop Connector Branches,25,Mixer,HOT WATER LOOP DEMAND MIXER,HOT WATER LOOP DEMAND BRANCH 25,HOT WATER LOOP DEMAND OUTLET BRANCH,HOT WATER LOOP,Demand
     Plant Loop Connector Nodes,   25,Mixer,HOT WATER LOOP DEMAND MIXER,NODE 180,NODE 39,HOT WATER LOOP,Demand
     Plant Loop Connector Branches,26,Mixer,HOT WATER LOOP DEMAND MIXER,HOT WATER LOOP DEMAND BRANCH 26,HOT WATER LOOP DEMAND OUTLET BRANCH,HOT WATER LOOP,Demand
     Plant Loop Connector Nodes,   26,Mixer,HOT WATER LOOP DEMAND MIXER,NODE 185,NODE 39,HOT WATER LOOP,Demand
     Plant Loop Connector Branches,27,Mixer,HOT WATER LOOP DEMAND MIXER,HOT WATER LOOP DEMAND BRANCH 27,HOT WATER LOOP DEMAND OUTLET BRANCH,HOT WATER LOOP,Demand
     Plant Loop Connector Nodes,   27,Mixer,HOT WATER LOOP DEMAND MIXER,NODE 190,NODE 39,HOT WATER LOOP,Demand
     Plant Loop Connector Branches,28,Mixer,HOT WATER LOOP DEMAND MIXER,HOT WATER LOOP DEMAND BYPASS BRANCH,HOT WATER LOOP DEMAND OUTLET BRANCH,HOT WATER LOOP,Demand
     Plant Loop Connector Nodes,   28,Mixer,HOT WATER LOOP DEMAND MIXER,HOT WATER LOOP DEMAND BYPASS PIPE OUTLET NODE,NODE 39,HOT WATER LOOP,Demand
 Plant Loop,HOT WATER LOOP,Supply,NODE 26,NODE 27,HOT WATER LOOP SUPPLY BRANCHES,HOT WATER LOOP SUPPLY CONNECTOR LIST
   Plant Loop Connector,Splitter,HOT WATER LOOP SUPPLY SPLITTER,HOT WATER LOOP,Supply,2
     Plant Loop Connector Branches,1,Splitter,HOT WATER LOOP SUPPLY SPLITTER,HOT WATER LOOP SUPPLY INLET BRANCH,HOT WATER LOOP SUPPLY BRANCH 1,HOT WATER LOOP,Supply
[...]
 Non-Parent Node Connection,LOBBY_ZN_1_FLR_1 ZN VAV TERMINAL DAMPER OUTLET,AIRTERMINAL:SINGLEDUCT:VAV:REHEAT,LOBBY_ZN_1_FLR_1 ZN VAV TERMINAL,Outlet,1
 Non-Parent Node Connection,NODE 173,AIRTERMINAL:SINGLEDUCT:VAV:REHEAT,LOBBY_ZN_1_FLR_1 ZN VAV TERMINAL,Inlet,1
 Non-Parent Node Connection,MAIN_CORRIDOR_ZN_1_FLR_1 ZN VAV TERMINAL DAMPER OUTLET,AIRTERMINAL:SINGLEDUCT:VAV:REHEAT,MAIN_CORRIDOR_ZN_1_FLR_1 ZN VAV TERMINAL,Outlet,1
 Non-Parent Node Connection,NODE 168,AIRTERMINAL:SINGLEDUCT:VAV:REHEAT,MAIN_CORRIDOR_ZN_1_FLR_1 ZN VAV TERMINAL,Inlet,1
 Non-Parent Node Connection,MECH_ZN_1_FLR_1 ZN VAV TERMINAL DAMPER OUTLET,AIRTERMINAL:SINGLEDUCT:VAV:REHEAT,MECH_ZN_1_FLR_1 ZN VAV TERMINAL,Outlet,1
 Non-Parent Node Connection,NODE 178,AIRTERMINAL:SINGLEDUCT:VAV:REHEAT,MECH_ZN_1_FLR_1 ZN VAV TERMINAL,Inlet,1
 Non-Parent Node Connection,MULT_CLASS_1_POD_1_ZN_1_FLR_1 ZN VAV TERMINAL DAMPER OUTLET,AIRTERMINAL:SINGLEDUCT:VAV:REHEAT,MULT_CLASS_1_POD_1_ZN_1_FLR_1 ZN VAV TERMINAL,Outlet,1
 Non-Parent Node Connection,NODE 60,AIRTERMINAL:SINGLEDUCT:VAV:REHEAT,MULT_CLASS_1_POD_1_ZN_1_FLR_1 ZN VAV TERMINAL,Inlet,1
 Non-Parent Node Connection,MULT_CLASS_1_POD_2_ZN_1_FLR_1 ZN VAV TERMINAL DAMPER OUTLET,AIRTERMINAL:SINGLEDUCT:VAV:REHEAT,MULT_CLASS_1_POD_2_ZN_1_FLR_1 ZN VAV TERMINAL,Outlet,1
 Non-Parent Node Connection,NODE 91,AIRTERMINAL:SINGLEDUCT:VAV:REHEAT,MULT_CLASS_1_POD_2_ZN_1_FLR_1 ZN VAV TERMINAL,Inlet,1
 Non-Parent Node Connection,MULT_CLASS_1_POD_3_ZN_1_FLR_1 ZN VAV TERMINAL DAMPER OUTLET,AIRTERMINAL:SINGLEDUCT:VAV:REHEAT,MULT_CLASS_1_POD_3_ZN_1_FLR_1 ZN VAV TERMINAL,Outlet,1
 Non-Parent Node Connection,NODE 132,AIRTERMINAL:SINGLEDUCT:VAV:REHEAT,MULT_CLASS_1_POD_3_ZN_1_FLR_1 ZN VAV TERMINAL,Inlet,1
 Non-Parent Node Connection,MULT_CLASS_2_POD_1_ZN_1_FLR_1 ZN VAV TERMINAL DAMPER OUTLET,AIRTERMINAL:SINGLEDUCT:VAV:REHEAT,MULT_CLASS_2_POD_1_ZN_1_FLR_1 ZN VAV TERMINAL,Outlet,1
 Non-Parent Node Connection,NODE 75,AIRTERMINAL:SINGLEDUCT:VAV:REHEAT,MULT_CLASS_2_POD_1_ZN_1_FLR_1 ZN VAV TERMINAL,Inlet,1
 Non-Parent Node Connection,MULT_CLASS_2_POD_2_ZN_1_FLR_1 ZN VAV TERMINAL DAMPER OUTLET,AIRTERMINAL:SINGLEDUCT:VAV:REHEAT,MULT_CLASS_2_POD_2_ZN_1_FLR_1 ZN VAV TERMINAL,Outlet,1
 Non-Parent Node Connection,NODE 106,AIRTERMINAL:SINGLEDUCT:VAV:REHEAT,MULT_CLASS_2_POD_2_ZN_1_FLR_1 ZN VAV TERMINAL,Inlet,1
 Non-Parent Node Connection,MULT_CLASS_2_POD_3_ZN_1_FLR_1 ZN VAV TERMINAL DAMPER OUTLET,AIRTERMINAL:SINGLEDUCT:VAV:REHEAT,MULT_CLASS_2_POD_3_ZN_1_FLR_1 ZN VAV TERMINAL,Outlet,1
 Non-Parent Node Connection,NODE 147,AIRTERMINAL:SINGLEDUCT:VAV:REHEAT,MULT_CLASS_2_POD_3_ZN_1_FLR_1 ZN VAV TERMINAL,Inlet,1
 Non-Parent Node Connection,OFFICES_ZN_1_FLR_1 ZN VAV TERMINAL DAMPER OUTLET,AIRTERMINAL:SINGLEDUCT:VAV:REHEAT,OFFICES_ZN_1_FLR_1 ZN VAV TERMINAL,Outlet,1
 Non-Parent Node Connection,NODE 188,AIRTERMINAL:SINGLEDUCT:VAV:REHEAT,OFFICES_ZN_1_FLR_1 ZN VAV TERMINAL,Inlet,1
 Non-Parent Node Connection,NODE 223,AIRTERMINAL:SINGLEDUCT:CONSTANTVOLUME:NOREHEAT,CAFETERIA_ZN_1_FLR_1 ZN PSZ-AC_2-7 DIFFUSER,Inlet,1
 Non-Parent Node Connection,NODE 218,AIRTERMINAL:SINGLEDUCT:CONSTANTVOLUME:NOREHEAT,CAFETERIA_ZN_1_FLR_1 ZN PSZ-AC_2-7 DIFFUSER,Outlet,1
 Non-Parent Node Connection,NODE 213,AIRTERMINAL:SINGLEDUCT:CONSTANTVOLUME:NOREHEAT,GYM_ZN_1_FLR_1 ZN PSZ-AC_2-5 DIFFUSER,Inlet,1
 Non-Parent Node Connection,NODE 208,AIRTERMINAL:SINGLEDUCT:CONSTANTVOLUME:NOREHEAT,GYM_ZN_1_FLR_1 ZN PSZ-AC_2-5 DIFFUSER,Outlet,1
 Non-Parent Node Connection,NODE 203,AIRTERMINAL:SINGLEDUCT:CONSTANTVOLUME:NOREHEAT,KITCHEN_ZN_1_FLR_1 ZN PSZ-AC_1-6 DIFFUSER,Inlet,1
 Non-Parent Node Connection,NODE 198,AIRTERMINAL:SINGLEDUCT:CONSTANTVOLUME:NOREHEAT,KITCHEN_ZN_1_FLR_1 ZN PSZ-AC_1-6 DIFFUSER,Outlet,1
 Non-Parent Node Connection,NODE 155,CONTROLLER:WATERCOIL,PVAV_OTHER MAIN HTG COIL CONTROLLER,Sensor,1
 Non-Parent Node Connection,NODE 153,CONTROLLER:WATERCOIL,PVAV_OTHER MAIN HTG COIL CONTROLLER,Actuator,1
 Non-Parent Node Connection,NODE 47,CONTROLLER:WATERCOIL,PVAV_POD_1 MAIN HTG COIL CONTROLLER,Sensor,1
 Non-Parent Node Connection,NODE 45,CONTROLLER:WATERCOIL,PVAV_POD_1 MAIN HTG COIL CONTROLLER,Actuator,1
 Non-Parent Node Connection,NODE 83,CONTROLLER:WATERCOIL,PVAV_POD_2 MAIN HTG COIL CONTROLLER,Sensor,1
 Non-Parent Node Connection,NODE 81,CONTROLLER:WATERCOIL,PVAV_POD_2 MAIN HTG COIL CONTROLLER,Actuator,1
 Non-Parent Node Connection,NODE 119,CONTROLLER:WATERCOIL,PVAV_POD_3 MAIN HTG COIL CONTROLLER,Sensor,1
 Non-Parent Node Connection,NODE 117,CONTROLLER:WATERCOIL,PVAV_POD_3 MAIN HTG COIL CONTROLLER,Actuator,1
 Non-Parent Node Connection,NODE 155,FAN:VARIABLEVOLUME,PVAV_OTHER FAN,Inlet,1
 Non-Parent Node Connection,NODE 149,FAN:VARIABLEVOLUME,PVAV_OTHER FAN,Outlet,1
 Non-Parent Node Connection,NODE 47,FAN:VARIABLEVOLUME,PVAV_POD_1 FAN,Inlet,1
 Non-Parent Node Connection,NODE 41,FAN:VARIABLEVOLUME,PVAV_POD_1 FAN,Outlet,1
 Non-Parent Node Connection,NODE 83,FAN:VARIABLEVOLUME,PVAV_POD_2 FAN,Inlet,1
 Non-Parent Node Connection,NODE 77,FAN:VARIABLEVOLUME,PVAV_POD_2 FAN,Outlet,1
 Non-Parent Node Connection,NODE 119,FAN:VARIABLEVOLUME,PVAV_POD_3 FAN,Inlet,1
 Non-Parent Node Connection,NODE 113,FAN:VARIABLEVOLUME,PVAV_POD_3 FAN,Outlet,1
 Non-Parent Node Connection,NODE 226,FAN:ZONEEXHAUST,BATH_ZN_1_FLR_1 ZN EXHAUST FAN,Inlet,1
 Non-Parent Node Connection,NODE 227,FAN:ZONEEXHAUST,BATH_ZN_1_FLR_1 ZN EXHAUST FAN,Outlet,1
 Non-Parent Node Connection,NODE 224,FAN:ZONEEXHAUST,KITCHEN_ZN_1_FLR_1 ZN EXHAUST FAN,Inlet,1
 Non-Parent Node Connection,NODE 225,FAN:ZONEEXHAUST,KITCHEN_ZN_1_FLR_1 ZN EXHAUST FAN,Outlet,1
 Non-Parent Node Connection,NODE 228,FAN:ZONEEXHAUST,LIBRARY_MEDIA_CENTER_ZN_1_FLR_1 ZN DUMMY TRANSFER AIR (SOURCE) FAN,Inlet,1
 Non-Parent Node Connection,NODE 229,FAN:ZONEEXHAUST,LIBRARY_MEDIA_CENTER_ZN_1_FLR_1 ZN DUMMY TRANSFER AIR (SOURCE) FAN,Outlet,1
 Non-Parent Node Connection,CAFETERIA_ZN_1_FLR_1 ZN PSZ-AC_2-7 UNITARY AC HEATING COIL - FAN NODE,FAN:ONOFF,CAFETERIA_ZN_1_FLR_1 ZN PSZ-AC_2-7 FAN,Inlet,1
 Non-Parent Node Connection,CAFETERIA_ZN_1_FLR_1 ZN PSZ-AC_2-7 UNITARY AC FAN - SUPPLEMENTAL COIL NODE,FAN:ONOFF,CAFETERIA_ZN_1_FLR_1 ZN PSZ-AC_2-7 FAN,Outlet,1
 Non-Parent Node Connection,GYM_ZN_1_FLR_1 ZN PSZ-AC_2-5 UNITARY AC HEATING COIL - FAN NODE,FAN:ONOFF,GYM_ZN_1_FLR_1 ZN PSZ-AC_2-5 FAN,Inlet,1
 Non-Parent Node Connection,GYM_ZN_1_FLR_1 ZN PSZ-AC_2-5 UNITARY AC FAN - SUPPLEMENTAL COIL NODE,FAN:ONOFF,GYM_ZN_1_FLR_1 ZN PSZ-AC_2-5 FAN,Outlet,1
 Non-Parent Node Connection,KITCHEN_ZN_1_FLR_1 ZN PSZ-AC_1-6 UNITARY AC HEATING COIL - FAN NODE,FAN:ONOFF,KITCHEN_ZN_1_FLR_1 ZN PSZ-AC_1-6 FAN,Inlet,1
 Non-Parent Node Connection,KITCHEN_ZN_1_FLR_1 ZN PSZ-AC_1-6 UNITARY AC FAN - SUPPLEMENTAL COIL NODE,FAN:ONOFF,KITCHEN_ZN_1_FLR_1 ZN PSZ-AC_1-6 FAN,Outlet,1
 Non-Parent Node Connection,NODE 217,AIRLOOPHVAC:ZONEMIXER,AIR LOOP HVAC ZONE MIXER 7,Outlet,1
 Non-Parent Node Connection,NODE 222,AIRLOOPHVAC:ZONEMIXER,AIR LOOP HVAC ZONE MIXER 7,Inlet,1
 Non-Parent Node Connection,NODE 207,AIRLOOPHVAC:ZONEMIXER,AIR LOOP HVAC ZONE MIXER 6,Outlet,1
 Non-Parent Node Connection,NODE 212,AIRLOOPHVAC:ZONEMIXER,AIR LOOP HVAC ZONE MIXER 6,Inlet,1
 Non-Parent Node Connection,NODE 197,AIRLOOPHVAC:ZONEMIXER,AIR LOOP HVAC ZONE MIXER 5,Outlet,1
 Non-Parent Node Connection,NODE 202,AIRLOOPHVAC:ZONEMIXER,AIR LOOP HVAC ZONE MIXER 5,Inlet,1
 Non-Parent Node Connection,NODE 151,AIRLOOPHVAC:ZONEMIXER,AIR LOOP HVAC ZONE MIXER 4,Outlet,1
 Non-Parent Node Connection,NODE 162,AIRLOOPHVAC:ZONEMIXER,AIR LOOP HVAC ZONE MIXER 4,Inlet,1
 Non-Parent Node Connection,NODE 167,AIRLOOPHVAC:ZONEMIXER,AIR LOOP HVAC ZONE MIXER 4,Inlet,1
 Non-Parent Node Connection,NODE 172,AIRLOOPHVAC:ZONEMIXER,AIR LOOP HVAC ZONE MIXER 4,Inlet,1
 Non-Parent Node Connection,NODE 177,AIRLOOPHVAC:ZONEMIXER,AIR LOOP HVAC ZONE MIXER 4,Inlet,1
 Non-Parent Node Connection,NODE 182,AIRLOOPHVAC:ZONEMIXER,AIR LOOP HVAC ZONE MIXER 4,Inlet,1
 Non-Parent Node Connection,NODE 187,AIRLOOPHVAC:ZONEMIXER,AIR LOOP HVAC ZONE MIXER 4,Inlet,1
 Non-Parent Node Connection,NODE 192,AIRLOOPHVAC:ZONEMIXER,AIR LOOP HVAC ZONE MIXER 4,Inlet,1
 Non-Parent Node Connection,NODE 43,AIRLOOPHVAC:ZONEMIXER,AIR LOOP HVAC ZONE MIXER 1,Outlet,1
 Non-Parent Node Connection,NODE 54,AIRLOOPHVAC:ZONEMIXER,AIR LOOP HVAC ZONE MIXER 1,Inlet,1
 Non-Parent Node Connection,NODE 59,AIRLOOPHVAC:ZONEMIXER,AIR LOOP HVAC ZONE MIXER 1,Inlet,1
 Non-Parent Node Connection,NODE 64,AIRLOOPHVAC:ZONEMIXER,AIR LOOP HVAC ZONE MIXER 1,Inlet,1
 Non-Parent Node Connection,NODE 69,AIRLOOPHVAC:ZONEMIXER,AIR LOOP HVAC ZONE MIXER 1,Inlet,1
 Non-Parent Node Connection,NODE 74,AIRLOOPHVAC:ZONEMIXER,AIR LOOP HVAC ZONE MIXER 1,Inlet,1
 Non-Parent Node Connection,NODE 79,AIRLOOPHVAC:ZONEMIXER,AIR LOOP HVAC ZONE MIXER 2,Outlet,1
 Non-Parent Node Connection,NODE 90,AIRLOOPHVAC:ZONEMIXER,AIR LOOP HVAC ZONE MIXER 2,Inlet,1
 Non-Parent Node Connection,NODE 95,AIRLOOPHVAC:ZONEMIXER,AIR LOOP HVAC ZONE MIXER 2,Inlet,1
 Non-Parent Node Connection,NODE 100,AIRLOOPHVAC:ZONEMIXER,AIR LOOP HVAC ZONE MIXER 2,Inlet,1
 Non-Parent Node Connection,NODE 105,AIRLOOPHVAC:ZONEMIXER,AIR LOOP HVAC ZONE MIXER 2,Inlet,1
 Non-Parent Node Connection,NODE 110,AIRLOOPHVAC:ZONEMIXER,AIR LOOP HVAC ZONE MIXER 2,Inlet,1
 Non-Parent Node Connection,NODE 115,AIRLOOPHVAC:ZONEMIXER,AIR LOOP HVAC ZONE MIXER 3,Outlet,1
 Non-Parent Node Connection,NODE 126,AIRLOOPHVAC:ZONEMIXER,AIR LOOP HVAC ZONE MIXER 3,Inlet,1
 Non-Parent Node Connection,NODE 131,AIRLOOPHVAC:ZONEMIXER,AIR LOOP HVAC ZONE MIXER 3,Inlet,1
 Non-Parent Node Connection,NODE 136,AIRLOOPHVAC:ZONEMIXER,AIR LOOP HVAC ZONE MIXER 3,Inlet,1
 Non-Parent Node Connection,NODE 141,AIRLOOPHVAC:ZONEMIXER,AIR LOOP HVAC ZONE MIXER 3,Inlet,1
 Non-Parent Node Connection,NODE 146,AIRLOOPHVAC:ZONEMIXER,AIR LOOP HVAC ZONE MIXER 3,Inlet,1
 Non-Parent Node Connection,NODE 221,OUTDOORAIR:MIXER,CAFETERIA_ZN_1_FLR_1 ZN PSZ-AC_2-7 OA SYSTEM OUTDOOR AIR MIXER,Outlet,1
 Non-Parent Node Connection,NODE 219,OUTDOORAIR:MIXER,CAFETERIA_ZN_1_FLR_1 ZN PSZ-AC_2-7 OA SYSTEM OUTDOOR AIR MIXER,Inlet,1
 Non-Parent Node Connection,NODE 220,OUTDOORAIR:MIXER,CAFETERIA_ZN_1_FLR_1 ZN PSZ-AC_2-7 OA SYSTEM OUTDOOR AIR MIXER,ReliefAir,1
 Non-Parent Node Connection,NODE 214,OUTDOORAIR:MIXER,CAFETERIA_ZN_1_FLR_1 ZN PSZ-AC_2-7 OA SYSTEM OUTDOOR AIR MIXER,Inlet,1
 Non-Parent Node Connection,NODE 211,OUTDOORAIR:MIXER,GYM_ZN_1_FLR_1 ZN PSZ-AC_2-5 OA SYSTEM OUTDOOR AIR MIXER,Outlet,1
 Non-Parent Node Connection,NODE 209,OUTDOORAIR:MIXER,GYM_ZN_1_FLR_1 ZN PSZ-AC_2-5 OA SYSTEM OUTDOOR AIR MIXER,Inlet,1
 Non-Parent Node Connection,NODE 210,OUTDOORAIR:MIXER,GYM_ZN_1_FLR_1 ZN PSZ-AC_2-5 OA SYSTEM OUTDOOR AIR MIXER,ReliefAir,1
 Non-Parent Node Connection,NODE 204,OUTDOORAIR:MIXER,GYM_ZN_1_FLR_1 ZN PSZ-AC_2-5 OA SYSTEM OUTDOOR AIR MIXER,Inlet,1
 Non-Parent Node Connection,NODE 201,OUTDOORAIR:MIXER,KITCHEN_ZN_1_FLR_1 ZN PSZ-AC_1-6 OA SYSTEM OUTDOOR AIR MIXER,Outlet,1
 Non-Parent Node Connection,NODE 199,OUTDOORAIR:MIXER,KITCHEN_ZN_1_FLR_1 ZN PSZ-AC_1-6 OA SYSTEM OUTDOOR AIR MIXER,Inlet,1
 Non-Parent Node Connection,NODE 200,OUTDOORAIR:MIXER,KITCHEN_ZN_1_FLR_1 ZN PSZ-AC_1-6 OA SYSTEM OUTDOOR AIR MIXER,ReliefAir,1
 Non-Parent Node Connection,NODE 194,OUTDOORAIR:MIXER,KITCHEN_ZN_1_FLR_1 ZN PSZ-AC_1-6 OA SYSTEM OUTDOOR AIR MIXER,Inlet,1
 Non-Parent Node Connection,NODE 159,OUTDOORAIR:MIXER,PVAV_OTHER OA SYSTEM OUTDOOR AIR MIXER,Outlet,1
 Non-Parent Node Connection,NODE 157,OUTDOORAIR:MIXER,PVAV_OTHER OA SYSTEM OUTDOOR AIR MIXER,Inlet,1
 Non-Parent Node Connection,NODE 158,OUTDOORAIR:MIXER,PVAV_OTHER OA SYSTEM OUTDOOR AIR MIXER,ReliefAir,1
 Non-Parent Node Connection,NODE 148,OUTDOORAIR:MIXER,PVAV_OTHER OA SYSTEM OUTDOOR AIR MIXER,Inlet,1
 Non-Parent Node Connection,NODE 51,OUTDOORAIR:MIXER,PVAV_POD_1 OA SYSTEM OUTDOOR AIR MIXER,Outlet,1
 Non-Parent Node Connection,NODE 49,OUTDOORAIR:MIXER,PVAV_POD_1 OA SYSTEM OUTDOOR AIR MIXER,Inlet,1
 Non-Parent Node Connection,NODE 50,OUTDOORAIR:MIXER,PVAV_POD_1 OA SYSTEM OUTDOOR AIR MIXER,ReliefAir,1
 Non-Parent Node Connection,NODE 40,OUTDOORAIR:MIXER,PVAV_POD_1 OA SYSTEM OUTDOOR AIR MIXER,Inlet,1
 Non-Parent Node Connection,NODE 87,OUTDOORAIR:MIXER,PVAV_POD_2 OA SYSTEM OUTDOOR AIR MIXER,Outlet,1
 Non-Parent Node Connection,NODE 85,OUTDOORAIR:MIXER,PVAV_POD_2 OA SYSTEM OUTDOOR AIR MIXER,Inlet,1
 Non-Parent Node Connection,NODE 86,OUTDOORAIR:MIXER,PVAV_POD_2 OA SYSTEM OUTDOOR AIR MIXER,ReliefAir,1
 Non-Parent Node Connection,NODE 76,OUTDOORAIR:MIXER,PVAV_POD_2 OA SYSTEM OUTDOOR AIR MIXER,Inlet,1
 Non-Parent Node Connection,NODE 123,OUTDOORAIR:MIXER,PVAV_POD_3 OA SYSTEM OUTDOOR AIR MIXER,Outlet,1
 Non-Parent Node Connection,NODE 121,OUTDOORAIR:MIXER,PVAV_POD_3 OA SYSTEM OUTDOOR AIR MIXER,Inlet,1
 Non-Parent Node Connection,NODE 122,OUTDOORAIR:MIXER,PVAV_POD_3 OA SYSTEM OUTDOOR AIR MIXER,ReliefAir,1
 Non-Parent Node Connection,NODE 112,OUTDOORAIR:MIXER,PVAV_POD_3 OA SYSTEM OUTDOOR AIR MIXER,Inlet,1
 Non-Parent Node Connection,CAFETERIA_ZN_1_FLR_1 ZN PSZ-AC_2-7 UNITARY AC FAN - SUPPLEMENTAL COIL NODE,COIL:HEATING:ELECTRIC,CAFETERIA_ZN_1_FLR_1 ZN PSZ-AC_2-7 NO HEAT,Inlet,1
 Non-Parent Node Connection,NODE 215,COIL:HEATING:ELECTRIC,CAFETERIA_ZN_1_FLR_1 ZN PSZ-AC_2-7 NO HEAT,Outlet,1
 Non-Parent Node Connection,GYM_ZN_1_FLR_1 ZN PSZ-AC_2-5 UNITARY AC FAN - SUPPLEMENTAL COIL NODE,COIL:HEATING:ELECTRIC,GYM_ZN_1_FLR_1 ZN PSZ-AC_2-5 NO HEAT,Inlet,1
 Non-Parent Node Connection,NODE 205,COIL:HEATING:ELECTRIC,GYM_ZN_1_FLR_1 ZN PSZ-AC_2-5 NO HEAT,Outlet,1
 Non-Parent Node Connection,KITCHEN_ZN_1_FLR_1 ZN PSZ-AC_1-6 UNITARY AC FAN - SUPPLEMENTAL COIL NODE,COIL:HEATING:ELECTRIC,KITCHEN_ZN_1_FLR_1 ZN PSZ-AC_1-6 NO HEAT,Inlet,1
 Non-Parent Node Connection,NODE 195,COIL:HEATING:ELECTRIC,KITCHEN_ZN_1_FLR_1 ZN PSZ-AC_1-6 NO HEAT,Outlet,1
 Non-Parent Node Connection,CAFETERIA_ZN_1_FLR_1 ZN PSZ-AC_2-7 UNITARY AC COOLING COIL - HEATING COIL NODE,COIL:HEATING:FUEL,CAFETERIA_ZN_1_FLR_1 ZN PSZ-AC_2-7 GAS HTG COIL,Inlet,1
 Non-Parent Node Connection,CAFETERIA_ZN_1_FLR_1 ZN PSZ-AC_2-7 UNITARY AC HEATING COIL - FAN NODE,COIL:HEATING:FUEL,CAFETERIA_ZN_1_FLR_1 ZN PSZ-AC_2-7 GAS HTG COIL,Outlet,1
 Non-Parent Node Connection,GYM_ZN_1_FLR_1 ZN PSZ-AC_2-5 UNITARY AC COOLING COIL - HEATING COIL NODE,COIL:HEATING:FUEL,GYM_ZN_1_FLR_1 ZN PSZ-AC_2-5 GAS HTG COIL,Inlet,1
 Non-Parent Node Connection,GYM_ZN_1_FLR_1 ZN PSZ-AC_2-5 UNITARY AC HEATING COIL - FAN NODE,COIL:HEATING:FUEL,GYM_ZN_1_FLR_1 ZN PSZ-AC_2-5 GAS HTG COIL,Outlet,1
 Non-Parent Node Connection,KITCHEN_ZN_1_FLR_1 ZN PSZ-AC_1-6 UNITARY AC COOLING COIL - HEATING COIL NODE,COIL:HEATING:FUEL,KITCHEN_ZN_1_FLR_1 ZN PSZ-AC_1-6 GAS HTG COIL,Inlet,1
 Non-Parent Node Connection,KITCHEN_ZN_1_FLR_1 ZN PSZ-AC_1-6 UNITARY AC HEATING COIL - FAN NODE,COIL:HEATING:FUEL,KITCHEN_ZN_1_FLR_1 ZN PSZ-AC_1-6 GAS HTG COIL,Outlet,1
 Non-Parent Node Connection,NODE 221,COIL:COOLING:DX:TWOSPEED,CAFETERIA_ZN_1_FLR_1 ZN PSZ-AC_2-7 2SPD DX AC CLG COIL,Inlet,1
 Non-Parent Node Connection,CAFETERIA_ZN_1_FLR_1 ZN PSZ-AC_2-7 UNITARY AC COOLING COIL - HEATING COIL NODE,COIL:COOLING:DX:TWOSPEED,CAFETERIA_ZN_1_FLR_1 ZN PSZ-AC_2-7 2SPD DX AC CLG COIL,Outlet,1
 Non-Parent Node Connection,NODE 211,COIL:COOLING:DX:TWOSPEED,GYM_ZN_1_FLR_1 ZN PSZ-AC_2-5 2SPD DX AC CLG COIL,Inlet,1
 Non-Parent Node Connection,GYM_ZN_1_FLR_1 ZN PSZ-AC_2-5 UNITARY AC COOLING COIL - HEATING COIL NODE,COIL:COOLING:DX:TWOSPEED,GYM_ZN_1_FLR_1 ZN PSZ-AC_2-5 2SPD DX AC CLG COIL,Outlet,1
 Non-Parent Node Connection,NODE 201,COIL:COOLING:DX:TWOSPEED,KITCHEN_ZN_1_FLR_1 ZN PSZ-AC_1-6 2SPD DX AC CLG COIL,Inlet,1
 Non-Parent Node Connection,KITCHEN_ZN_1_FLR_1 ZN PSZ-AC_1-6 UNITARY AC COOLING COIL - HEATING COIL NODE,COIL:COOLING:DX:TWOSPEED,KITCHEN_ZN_1_FLR_1 ZN PSZ-AC_1-6 2SPD DX AC CLG COIL,Outlet,1
 Non-Parent Node Connection,NODE 159,COIL:COOLING:DX:TWOSPEED,PVAV_OTHER 2SPD DX CLG COIL,Inlet,1
 Non-Parent Node Connection,NODE 156,COIL:COOLING:DX:TWOSPEED,PVAV_OTHER 2SPD DX CLG COIL,Outlet,1
 Non-Parent Node Connection,NODE 51,COIL:COOLING:DX:TWOSPEED,PVAV_POD_1 2SPD DX CLG COIL,Inlet,1
 Non-Parent Node Connection,NODE 48,COIL:COOLING:DX:TWOSPEED,PVAV_POD_1 2SPD DX CLG COIL,Outlet,1
 Non-Parent Node Connection,NODE 87,COIL:COOLING:DX:TWOSPEED,PVAV_POD_2 2SPD DX CLG COIL,Inlet,1
 Non-Parent Node Connection,NODE 84,COIL:COOLING:DX:TWOSPEED,PVAV_POD_2 2SPD DX CLG COIL,Outlet,1
 Non-Parent Node Connection,NODE 123,COIL:COOLING:DX:TWOSPEED,PVAV_POD_3 2SPD DX CLG COIL,Inlet,1
 Non-Parent Node Connection,NODE 120,COIL:COOLING:DX:TWOSPEED,PVAV_POD_3 2SPD DX CLG COIL,Outlet,1
 Non-Parent Node Connection,NODE 221,CONTROLLER:OUTDOORAIR,CAFETERIA_ZN_1_FLR_1 ZN PSZ-AC_2-7 OA SYSTEM CONTROLLER,Sensor,1
 Non-Parent Node Connection,NODE 219,CONTROLLER:OUTDOORAIR,CAFETERIA_ZN_1_FLR_1 ZN PSZ-AC_2-7 OA SYSTEM CONTROLLER,Actuator,1
 Non-Parent Node Connection,NODE 220,CONTROLLER:OUTDOORAIR,CAFETERIA_ZN_1_FLR_1 ZN PSZ-AC_2-7 OA SYSTEM CONTROLLER,Actuator,1
 Non-Parent Node Connection,NODE 214,CONTROLLER:OUTDOORAIR,CAFETERIA_ZN_1_FLR_1 ZN PSZ-AC_2-7 OA SYSTEM CONTROLLER,Sensor,1
 Non-Parent Node Connection,NODE 211,CONTROLLER:OUTDOORAIR,GYM_ZN_1_FLR_1 ZN PSZ-AC_2-5 OA SYSTEM CONTROLLER,Sensor,1
 Non-Parent Node Connection,NODE 209,CONTROLLER:OUTDOORAIR,GYM_ZN_1_FLR_1 ZN PSZ-AC_2-5 OA SYSTEM CONTROLLER,Actuator,1
 Non-Parent Node Connection,NODE 210,CONTROLLER:OUTDOORAIR,GYM_ZN_1_FLR_1 ZN PSZ-AC_2-5 OA SYSTEM CONTROLLER,Actuator,1
 Non-Parent Node Connection,NODE 204,CONTROLLER:OUTDOORAIR,GYM_ZN_1_FLR_1 ZN PSZ-AC_2-5 OA SYSTEM CONTROLLER,Sensor,1
 Non-Parent Node Connection,NODE 201,CONTROLLER:OUTDOORAIR,KITCHEN_ZN_1_FLR_1 ZN PSZ-AC_1-6 OA SYSTEM CONTROLLER,Sensor,1
 Non-Parent Node Connection,NODE 199,CONTROLLER:OUTDOORAIR,KITCHEN_ZN_1_FLR_1 ZN PSZ-AC_1-6 OA SYSTEM CONTROLLER,Actuator,1
 Non-Parent Node Connection,NODE 200,CONTROLLER:OUTDOORAIR,KITCHEN_ZN_1_FLR_1 ZN PSZ-AC_1-6 OA SYSTEM CONTROLLER,Actuator,1
 Non-Parent Node Connection,NODE 194,CONTROLLER:OUTDOORAIR,KITCHEN_ZN_1_FLR_1 ZN PSZ-AC_1-6 OA SYSTEM CONTROLLER,Sensor,1
 Non-Parent Node Connection,NODE 159,CONTROLLER:OUTDOORAIR,CONTROLLER OUTDOOR AIR 4,Sensor,1
 Non-Parent Node Connection,NODE 157,CONTROLLER:OUTDOORAIR,CONTROLLER OUTDOOR AIR 4,Actuator,1
 Non-Parent Node Connection,NODE 158,CONTROLLER:OUTDOORAIR,CONTROLLER OUTDOOR AIR 4,Actuator,1
 Non-Parent Node Connection,NODE 148,CONTROLLER:OUTDOORAIR,CONTROLLER OUTDOOR AIR 4,Sensor,1
 Non-Parent Node Connection,NODE 51,CONTROLLER:OUTDOORAIR,CONTROLLER OUTDOOR AIR 1,Sensor,1
 Non-Parent Node Connection,NODE 49,CONTROLLER:OUTDOORAIR,CONTROLLER OUTDOOR AIR 1,Actuator,1
 Non-Parent Node Connection,NODE 50,CONTROLLER:OUTDOORAIR,CONTROLLER OUTDOOR AIR 1,Actuator,1
 Non-Parent Node Connection,NODE 40,CONTROLLER:OUTDOORAIR,CONTROLLER OUTDOOR AIR 1,Sensor,1
 Non-Parent Node Connection,NODE 87,CONTROLLER:OUTDOORAIR,CONTROLLER OUTDOOR AIR 2,Sensor,1
 Non-Parent Node Connection,NODE 85,CONTROLLER:OUTDOORAIR,CONTROLLER OUTDOOR AIR 2,Actuator,1
 Non-Parent Node Connection,NODE 86,CONTROLLER:OUTDOORAIR,CONTROLLER OUTDOOR AIR 2,Actuator,1
 Non-Parent Node Connection,NODE 76,CONTROLLER:OUTDOORAIR,CONTROLLER OUTDOOR AIR 2,Sensor,1
 Non-Parent Node Connection,NODE 123,CONTROLLER:OUTDOORAIR,CONTROLLER OUTDOOR AIR 3,Sensor,1
 Non-Parent Node Connection,NODE 121,CONTROLLER:OUTDOORAIR,CONTROLLER OUTDOOR AIR 3,Actuator,1
 Non-Parent Node Connection,NODE 122,CONTROLLER:OUTDOORAIR,CONTROLLER OUTDOOR AIR 3,Actuator,1
 Non-Parent Node Connection,NODE 112,CONTROLLER:OUTDOORAIR,CONTROLLER OUTDOOR AIR 3,Sensor,1
 Non-Parent Node Connection,NODE 26,PUMP:VARIABLESPEED,HOT WATER LOOP PUMP,Inlet,1
 Non-Parent Node Connection,NODE 32,PUMP:VARIABLESPEED,HOT WATER LOOP PUMP,Outlet,1
 Non-Parent Node Connection,NODE 259,PUMP:VARIABLESPEED,BOOSTER WATER LOOP PUMP,Inlet,1
 Non-Parent Node Connection,NODE 251,PUMP:VARIABLESPEED,BOOSTER WATER LOOP PUMP,Outlet,1
 Non-Parent Node Connection,NODE 230,PUMP:CONSTANTSPEED,MAIN SERVICE WATER LOOP CIRCULATOR PUMP,Inlet,1
 Non-Parent Node Connection,NODE 236,PUMP:CONSTANTSPEED,MAIN SERVICE WATER LOOP CIRCULATOR PUMP,Outlet,1
