{
   "completed_at" : "20221129T053645Z",
   "completed_status" : "Success",
   "created_at" : "20221118T161510Z",
   "current_step" : 2,
   "eplusout_err" : "Program Version,EnergyPlus, Version 22.1.0-ed759b17ee, YMD=2022.11.28 22:36,\n   ************* Beginning Zone Sizing Calculations\n   ** Warning ** ProcessScheduleInput: Schedule:Day:Interval=\"ECONOMIZER MAX OA FRACTION 70 PCT DEFAULT\", Blank Schedule Type Limits Name input -- will not be validated.\n   ** Warning ** ProcessScheduleInput: Schedule:Constant=\"ALWAYS OFF DISCRETE\", Blank Schedule Type Limits Name input -- will not be validated.\n   ** Warning ** ProcessScheduleInput: Schedule:Constant=\"ALWAYS ON CONTINUOUS\", Blank Schedule Type Limits Name input -- will not be validated.\n   ** Warning ** CheckUsedConstructions: There are 11 nominally unused constructions in input.\n   **   ~~~   ** For explicit details on each unused construction, use Output:Diagnostics,DisplayExtraWarnings;\n   ** Warning ** GetInternalHeatGains: People=\"OFFICE WHOLEBUILDING - SM OFFICE PEOPLE\" has comfort related schedules but no thermal comfort model selected.\n   **   ~~~   ** If schedules are specified for air velocity, clothing insulation, and/or work efficiency but no thermal comfort\n   **   ~~~   ** thermal comfort model is selected, the schedules will be listed as unused schedules in the .err file.\n   **   ~~~   ** To avoid these errors, select a valid thermal comfort model or eliminate these schedules in the PEOPLE input.\n   ** Warning ** GetInternalHeatGains: People=\"OFFICE WHOLEBUILDING - SM OFFICE PEOPLE\" has comfort related schedules but no thermal comfort model selected.\n   **   ~~~   ** If schedules are specified for air velocity, clothing insulation, and/or work efficiency but no thermal comfort\n   **   ~~~   ** thermal comfort model is selected, the schedules will be listed as unused schedules in the .err file.\n   **   ~~~   ** To avoid these errors, select a valid thermal comfort model or eliminate these schedules in the PEOPLE input.\n   ** Warning ** GetInternalHeatGains: People=\"OFFICE WHOLEBUILDING - SM OFFICE PEOPLE\" has comfort related schedules but no thermal comfort model selected.\n   **   ~~~   ** If schedules are specified for air velocity, clothing insulation, and/or work efficiency but no thermal comfort\n   **   ~~~   ** thermal comfort model is selected, the schedules will be listed as unused schedules in the .err file.\n   **   ~~~   ** To avoid these errors, select a valid thermal comfort model or eliminate these schedules in the PEOPLE input.\n   ** Warning ** GetInternalHeatGains: People=\"OFFICE WHOLEBUILDING - SM OFFICE PEOPLE\" has comfort related schedules but no thermal comfort model selected.\n   **   ~~~   ** If schedules are specified for air velocity, clothing insulation, and/or work efficiency but no thermal comfort\n   **   ~~~   ** thermal comfort model is selected, the schedules will be listed as unused schedules in the .err file.\n   **   ~~~   ** To avoid these errors, select a valid thermal comfort model or eliminate these schedules in the PEOPLE input.\n   ** Warning ** GetInternalHeatGains: People=\"OFFICE WHOLEBUILDING - SM OFFICE PEOPLE\" has comfort related schedules but no thermal comfort model selected.\n   **   ~~~   ** If schedules are specified for air velocity, clothing insulation, and/or work efficiency but no thermal comfort\n   **   ~~~   ** thermal comfort model is selected, the schedules will be listed as unused schedules in the .err file.\n   **   ~~~   ** To avoid these errors, select a valid thermal comfort model or eliminate these schedules in the PEOPLE input.\n   ** Warning ** GetDaylightingControls: Fraction of zone or space controlled by the Daylighting reference points is < 1.0.\n   **   ~~~   ** ..discovered in Daylighting:Controls=\"PERIMETER_ZN_1 ZN DAYLIGHTINGCONTROLS\", only 0.000 of the zone or space is controlled.\n   ** Warning ** GetDaylightingControls: Fraction of zone or space controlled by the Daylighting reference points is < 1.0.\n   **   ~~~   ** ..discovered in Daylighting:Controls=\"PERIMETER_ZN_2 ZN DAYLIGHTINGCONTROLS\", only 0.000 of the zone or space is controlled.\n   ** Warning ** GetDaylightingControls: Fraction of zone or space controlled by the Daylighting reference points is < 1.0.\n   **   ~~~   ** ..discovered in Daylighting:Controls=\"PERIMETER_ZN_3 ZN DAYLIGHTINGCONTROLS\", only 0.000 of the zone or space is controlled.\n   ** Warning ** GetDaylightingControls: Fraction of zone or space controlled by the Daylighting reference points is < 1.0.\n   **   ~~~   ** ..discovered in Daylighting:Controls=\"PERIMETER_ZN_4 ZN DAYLIGHTINGCONTROLS\", only 0.000 of the zone or space is controlled.\n   ************* Beginning System Sizing Calculations\n   ** Warning ** GetDXCoils: Coil:Heating:DX:SingleSpeed=\"CORE_ZN ZN HP HTG COIL 27 CLG KBTU/HR 7.7HSPF\", invalid\n   **   ~~~   ** ...Part Load Fraction Correlation Curve Name = DXHEAT-NECB2011-REF-PLFFPLR has out of range value.\n   **   ~~~   ** ...Curve maximum must be <= 1.0, curve max at PLR = 0.99 is 1.005\n   **   ~~~   ** ...Setting curve maximum to 1.0 and simulation continues.\n   ** Warning ** GetDXCoils: Coil:Heating:DX:SingleSpeed=\"CORE_ZN ZN HP HTG COIL 27 CLG KBTU/HR 7.7HSPF\" curve values\n   **   ~~~   ** ... Defrost Energy Input Ratio Function of Temperature Curve Name = CORE_ZN ZN HP HTG COIL DEFROST EIR FUNC OF TEMP CURVE 1 output is not equal to 1.0 (+ or - 10%) at rated conditions.\n   **   ~~~   ** ... Curve output at rated conditions = 0.787\n   ** Warning ** GetDXCoils: Coil:Heating:DX:SingleSpeed=\"PERIMETER_ZN_1 ZN HP HTG COIL 31 CLG KBTU/HR 7.7HSPF\" curve values\n   **   ~~~   ** ... Defrost Energy Input Ratio Function of Temperature Curve Name = PERIMETER_ZN_1 ZN HP HTG COIL DEFROST EIR FUNC OF TEMP CURVE 1 output is not equal to 1.0 (+ or - 10%) at rated conditions.\n   **   ~~~   ** ... Curve output at rated conditions = 0.787\n   ** Warning ** GetDXCoils: Coil:Heating:DX:SingleSpeed=\"PERIMETER_ZN_2 ZN HP HTG COIL 29 CLG KBTU/HR 7.7HSPF\" curve values\n   **   ~~~   ** ... Defrost Energy Input Ratio Function of Temperature Curve Name = PERIMETER_ZN_2 ZN HP HTG COIL DEFROST EIR FUNC OF TEMP CURVE 1 output is not equal to 1.0 (+ or - 10%) at rated conditions.\n   **   ~~~   ** ... Curve output at rated conditions = 0.787\n   ** Warning ** GetDXCoils: Coil:Heating:DX:SingleSpeed=\"PERIMETER_ZN_3 ZN HP HTG COIL 30 CLG KBTU/HR 7.7HSPF\" curve values\n   **   ~~~   ** ... Defrost Energy Input Ratio Function of Temperature Curve Name = PERIMETER_ZN_3 ZN HP HTG COIL DEFROST EIR FUNC OF TEMP CURVE 1 output is not equal to 1.0 (+ or - 10%) at rated conditions.\n   **   ~~~   ** ... Curve output at rated conditions = 0.787\n   ** Warning ** GetDXCoils: Coil:Heating:DX:SingleSpeed=\"PERIMETER_ZN_4 ZN HP HTG COIL 31 CLG KBTU/HR 7.7HSPF\" curve values\n   **   ~~~   ** ... Defrost Energy Input Ratio Function of Temperature Curve Name = PERIMETER_ZN_4 ZN HP HTG COIL DEFROST EIR FUNC OF TEMP CURVE 1 output is not equal to 1.0 (+ or - 10%) at rated conditions.\n   **   ~~~   ** ... Curve output at rated conditions = 0.787\n   ** Warning ** AirLoopHVAC:UnitarySystem = CORE_ZN ZN PSZ-AC-1 UNITARY HP\n   **   ~~~   ** Method used to determine the cooling supply air flow rate is not specified when cooling coil is present.\n   ** Warning ** AirLoopHVAC:UnitarySystem = CORE_ZN ZN PSZ-AC-1 UNITARY HP\n   **   ~~~   ** Method used to determine the heating supply air flow rate is not specified when heating coil is present.\n   ** Warning ** AirLoopHVAC:UnitarySystem = PERIMETER_ZN_1 ZN PSZ-AC-2 UNITARY HP\n   **   ~~~   ** Method used to determine the cooling supply air flow rate is not specified when cooling coil is present.\n   ** Warning ** AirLoopHVAC:UnitarySystem = PERIMETER_ZN_1 ZN PSZ-AC-2 UNITARY HP\n   **   ~~~   ** Method used to determine the heating supply air flow rate is not specified when heating coil is present.\n   ** Warning ** AirLoopHVAC:UnitarySystem = PERIMETER_ZN_2 ZN PSZ-AC-3 UNITARY HP\n   **   ~~~   ** Method used to determine the cooling supply air flow rate is not specified when cooling coil is present.\n   ** Warning ** AirLoopHVAC:UnitarySystem = PERIMETER_ZN_2 ZN PSZ-AC-3 UNITARY HP\n   **   ~~~   ** Method used to determine the heating supply air flow rate is not specified when heating coil is present.\n   ** Warning ** AirLoopHVAC:UnitarySystem = PERIMETER_ZN_3 ZN PSZ-AC-4 UNITARY HP\n   **   ~~~   ** Method used to determine the cooling supply air flow rate is not specified when cooling coil is present.\n   ** Warning ** AirLoopHVAC:UnitarySystem = PERIMETER_ZN_3 ZN PSZ-AC-4 UNITARY HP\n   **   ~~~   ** Method used to determine the heating supply air flow rate is not specified when heating coil is present.\n   ** Warning ** AirLoopHVAC:UnitarySystem = PERIMETER_ZN_4 ZN PSZ-AC-5 UNITARY HP\n   **   ~~~   ** Method used to determine the cooling supply air flow rate is not specified when cooling coil is present.\n   ** Warning ** AirLoopHVAC:UnitarySystem = PERIMETER_ZN_4 ZN PSZ-AC-5 UNITARY HP\n   **   ~~~   ** Method used to determine the heating supply air flow rate is not specified when heating coil is present.\n   ************* Beginning Plant Sizing Calculations\n   ** Warning ** GetOAControllerInputs: Controller:MechanicalVentilation=\"CONTROLLER MECHANICAL VENTILATION 5\n   **   ~~~   ** Cannot locate a matching DesignSpecification:ZoneAirDistribution object for Zone=\"CORE_ZN ZN\".\n   **   ~~~   ** Using default zone air distribution effectiveness of 1.0 for heating and cooling.\n   ** Warning ** GetOAControllerInputs: Controller:MechanicalVentilation=\"CONTROLLER MECHANICAL VENTILATION 1\n   **   ~~~   ** Cannot locate a matching DesignSpecification:ZoneAirDistribution object for Zone=\"PERIMETER_ZN_1 ZN\".\n   **   ~~~   ** Using default zone air distribution effectiveness of 1.0 for heating and cooling.\n   ** Warning ** GetOAControllerInputs: Controller:MechanicalVentilation=\"CONTROLLER MECHANICAL VENTILATION 2\n   **   ~~~   ** Cannot locate a matching DesignSpecification:ZoneAirDistribution object for Zone=\"PERIMETER_ZN_2 ZN\".\n   **   ~~~   ** Using default zone air distribution effectiveness of 1.0 for heating and cooling.\n   ** Warning ** GetOAControllerInputs: Controller:MechanicalVentilation=\"CONTROLLER MECHANICAL VENTILATION 3\n   **   ~~~   ** Cannot locate a matching DesignSpecification:ZoneAirDistribution object for Zone=\"PERIMETER_ZN_3 ZN\".\n   **   ~~~   ** Using default zone air distribution effectiveness of 1.0 for heating and cooling.\n   ** Warning ** GetOAControllerInputs: Controller:MechanicalVentilation=\"CONTROLLER MECHANICAL VENTILATION 4\n   **   ~~~   ** Cannot locate a matching DesignSpecification:ZoneAirDistribution object for Zone=\"PERIMETER_ZN_4 ZN\".\n   **   ~~~   ** Using default zone air distribution effectiveness of 1.0 for heating and cooling.\n   ** Warning ** The Standard Ratings is calculated for Coil:Cooling:DX:SingleSpeed = CORE_ZN ZN PSZ-AC-1 1SPD DX HP CLG COIL 27KBTU/HR 13.0SEER but not at the AHRI test condition due to curve out of bound.\n   **   ~~~   **  Review the Standard Ratings calculations in the Engineering Reference for this coil type. Also, use Output:Diagnostics, DisplayExtraWarnings for further guidance.\n   ** Warning ** The Standard Ratings is calculated for Coil:Cooling:DX:SingleSpeed = PERIMETER_ZN_1 ZN PSZ-AC-2 1SPD DX HP CLG COIL 31KBTU/HR 13.0SEER but not at the AHRI test condition due to curve out of bound.\n   **   ~~~   **  Review the Standard Ratings calculations in the Engineering Reference for this coil type. Also, use Output:Diagnostics, DisplayExtraWarnings for further guidance.\n   ** Warning ** The Standard Ratings is calculated for Coil:Cooling:DX:SingleSpeed = PERIMETER_ZN_2 ZN PSZ-AC-3 1SPD DX HP CLG COIL 29KBTU/HR 13.0SEER but not at the AHRI test condition due to curve out of bound.\n   **   ~~~   **  Review the Standard Ratings calculations in the Engineering Reference for this coil type. Also, use Output:Diagnostics, DisplayExtraWarnings for further guidance.\n   ** Warning ** The Standard Ratings is calculated for Coil:Cooling:DX:SingleSpeed = PERIMETER_ZN_3 ZN PSZ-AC-4 1SPD DX HP CLG COIL 30KBTU/HR 13.0SEER but not at the AHRI test condition due to curve out of bound.\n   **   ~~~   **  Review the Standard Ratings calculations in the Engineering Reference for this coil type. Also, use Output:Diagnostics, DisplayExtraWarnings for further guidance.\n   ** Warning ** The Standard Ratings is calculated for Coil:Cooling:DX:SingleSpeed = PERIMETER_ZN_4 ZN PSZ-AC-5 1SPD DX HP CLG COIL 31KBTU/HR 13.0SEER but not at the AHRI test condition due to curve out of bound.\n   **   ~~~   **  Review the Standard Ratings calculations in the Engineering Reference for this coil type. Also, use Output:Diagnostics, DisplayExtraWarnings for further guidance.\n   ** Warning ** Check input. Pump nominal power or motor efficiency is set to 0, for pump=MAIN SERVICE WATER LOOP WATER MAINS PRESSURE DRIVEN\n   ** Warning ** Output:Meter: invalid Key Name=\"DISTRICTCOOLING:FACILITY\" - not found.\n   ** Warning ** Output:Meter: invalid Key Name=\"DISTRICTHEATING:FACILITY\" - not found.\n   ** Warning ** Output:Meter:MeterFileOnly requested for \"Electricity:Facility\" (TimeStep), already on \"Output:Meter\". Will report to both eplusout.eso and eplusout.mtr\n   ************* Testing Individual Branch Integrity\n   ************* All Branches passed integrity testing\n   ************* Testing Individual Supply Air Path Integrity\n   ************* All Supply Air Paths passed integrity testing\n   ************* Testing Individual Return Air Path Integrity\n   ************* All Return Air Paths passed integrity testing\n   ************* No node connection errors were found.\n   ************* Beginning Simulation\n   ** Warning ** In Output:Table:Monthly 'BUILDING ENERGY PERFORMANCE - ELECTRICITY' invalid Variable or Meter Name 'EXTERIOREQUIPMENT:ELECTRICITY'\n   ** Warning ** In Output:Table:Monthly 'BUILDING ENERGY PERFORMANCE - ELECTRICITY' invalid Variable or Meter Name 'HEATREJECTION:ELECTRICITY'\n   ** Warning ** In Output:Table:Monthly 'BUILDING ENERGY PERFORMANCE - ELECTRICITY' invalid Variable or Meter Name 'HUMIDIFIER:ELECTRICITY'\n   ** Warning ** In Output:Table:Monthly 'BUILDING ENERGY PERFORMANCE - ELECTRICITY' invalid Variable or Meter Name 'HEATRECOVERY:ELECTRICITY'\n   ** Warning ** In Output:Table:Monthly 'BUILDING ENERGY PERFORMANCE - ELECTRICITY' invalid Variable or Meter Name 'COGENERATION:ELECTRICITY'\n   ** Warning ** In Output:Table:Monthly 'BUILDING ENERGY PERFORMANCE - ELECTRICITY' invalid Variable or Meter Name 'REFRIGERATION:ELECTRICITY'\n   ** Warning ** In Output:Table:Monthly 'BUILDING ENERGY PERFORMANCE - NATURAL GAS' invalid Variable or Meter Name 'INTERIOREQUIPMENT:NATURALGAS'\n   ** Warning ** In Output:Table:Monthly 'BUILDING ENERGY PERFORMANCE - NATURAL GAS' invalid Variable or Meter Name 'EXTERIOREQUIPMENT:NATURALGAS'\n   ** Warning ** In Output:Table:Monthly 'BUILDING ENERGY PERFORMANCE - NATURAL GAS' invalid Variable or Meter Name 'COOLING:NATURALGAS'\n   ** Warning ** In Output:Table:Monthly 'BUILDING ENERGY PERFORMANCE - NATURAL GAS' invalid Variable or Meter Name 'WATERSYSTEMS:NATURALGAS'\n   ** Warning ** In Output:Table:Monthly 'BUILDING ENERGY PERFORMANCE - NATURAL GAS' invalid Variable or Meter Name 'COGENERATION:NATURALGAS'\n   ** Warning ** In Output:Table:Monthly 'BUILDING ENERGY PERFORMANCE - DISTRICT HEATING' invalid Variable or Meter Name 'INTERIORLIGHTS:DISTRICTHEATING'\n   ** Warning ** In Output:Table:Monthly 'BUILDING ENERGY PERFORMANCE - DISTRICT HEATING' invalid Variable or Meter Name 'EXTERIORLIGHTS:DISTRICTHEATING'\n   ** Warning ** In Output:Table:Monthly 'BUILDING ENERGY PERFORMANCE - DISTRICT HEATING' invalid Variable or Meter Name 'INTERIOREQUIPMENT:DISTRICTHEATING'\n   ** Warning ** In Output:Table:Monthly 'BUILDING ENERGY PERFORMANCE - DISTRICT HEATING' invalid Variable or Meter Name 'EXTERIOREQUIPMENT:DISTRICTHEATING'\n   ** Warning ** In Output:Table:Monthly 'BUILDING ENERGY PERFORMANCE - DISTRICT HEATING' invalid Variable or Meter Name 'FANS:DISTRICTHEATING'\n   ** Warning ** In Output:Table:Monthly 'BUILDING ENERGY PERFORMANCE - DISTRICT HEATING' invalid Variable or Meter Name 'PUMPS:DISTRICTHEATING'\n   ** Warning ** In Output:Table:Monthly 'BUILDING ENERGY PERFORMANCE - DISTRICT HEATING' invalid Variable or Meter Name 'HEATING:DISTRICTHEATING'\n   ** Warning ** In Output:Table:Monthly 'BUILDING ENERGY PERFORMANCE - DISTRICT HEATING' invalid Variable or Meter Name 'COOLING:DISTRICTHEATING'\n   ** Warning ** In Output:Table:Monthly 'BUILDING ENERGY PERFORMANCE - DISTRICT HEATING' invalid Variable or Meter Name 'HEATREJECTION:DISTRICTHEATING'\n   ** Warning ** In Output:Table:Monthly 'BUILDING ENERGY PERFORMANCE - DISTRICT HEATING' invalid Variable or Meter Name 'HUMIDIFIER:DISTRICTHEATING'\n   ** Warning ** In Output:Table:Monthly 'BUILDING ENERGY PERFORMANCE - DISTRICT HEATING' invalid Variable or Meter Name 'HEATRECOVERY:DISTRICTHEATING'\n   ** Warning ** In Output:Table:Monthly 'BUILDING ENERGY PERFORMANCE - DISTRICT HEATING' invalid Variable or Meter Name 'WATERSYSTEMS:DISTRICTHEATING'\n   ** Warning ** In Output:Table:Monthly 'BUILDING ENERGY PERFORMANCE - DISTRICT HEATING' invalid Variable or Meter Name 'COGENERATION:DISTRICTHEATING'\n   ** Warning ** In Output:Table:Monthly 'BUILDING ENERGY PERFORMANCE - DISTRICT COOLING' invalid Variable or Meter Name 'INTERIORLIGHTS:DISTRICTCOOLING'\n   ** Warning ** In Output:Table:Monthly 'BUILDING ENERGY PERFORMANCE - DISTRICT COOLING' invalid Variable or Meter Name 'EXTERIORLIGHTS:DISTRICTCOOLING'\n   ** Warning ** In Output:Table:Monthly 'BUILDING ENERGY PERFORMANCE - DISTRICT COOLING' invalid Variable or Meter Name 'INTERIOREQUIPMENT:DISTRICTCOOLING'\n   ** Warning ** In Output:Table:Monthly 'BUILDING ENERGY PERFORMANCE - DISTRICT COOLING' invalid Variable or Meter Name 'EXTERIOREQUIPMENT:DISTRICTCOOLING'\n   ** Warning ** In Output:Table:Monthly 'BUILDING ENERGY PERFORMANCE - DISTRICT COOLING' invalid Variable or Meter Name 'FANS:DISTRICTCOOLING'\n   ** Warning ** In Output:Table:Monthly 'BUILDING ENERGY PERFORMANCE - DISTRICT COOLING' invalid Variable or Meter Name 'PUMPS:DISTRICTCOOLING'\n   ** Warning ** In Output:Table:Monthly 'BUILDING ENERGY PERFORMANCE - DISTRICT COOLING' invalid Variable or Meter Name 'HEATING:DISTRICTCOOLING'\n   ** Warning ** In Output:Table:Monthly 'BUILDING ENERGY PERFORMANCE - DISTRICT COOLING' invalid Variable or Meter Name 'COOLING:DISTRICTCOOLING'\n   ** Warning ** In Output:Table:Monthly 'BUILDING ENERGY PERFORMANCE - DISTRICT COOLING' invalid Variable or Meter Name 'HEATREJECTION:DISTRICTCOOLING'\n   ** Warning ** In Output:Table:Monthly 'BUILDING ENERGY PERFORMANCE - DISTRICT COOLING' invalid Variable or Meter Name 'HUMIDIFIER:DISTRICTCOOLING'\n   ** Warning ** In Output:Table:Monthly 'BUILDING ENERGY PERFORMANCE - DISTRICT COOLING' invalid Variable or Meter Name 'HEATRECOVERY:DISTRICTCOOLING'\n   ** Warning ** In Output:Table:Monthly 'BUILDING ENERGY PERFORMANCE - DISTRICT COOLING' invalid Variable or Meter Name 'WATERSYSTEMS:DISTRICTCOOLING'\n   ** Warning ** In Output:Table:Monthly 'BUILDING ENERGY PERFORMANCE - DISTRICT COOLING' invalid Variable or Meter Name 'COGENERATION:DISTRICTCOOLING'\n   ** Warning ** In Output:Table:Monthly 'BUILDING ENERGY PERFORMANCE - ELECTRICITY PEAK DEMAND' invalid Variable or Meter Name 'EXTERIOREQUIPMENT:ELECTRICITY'\n   ** Warning ** In Output:Table:Monthly 'BUILDING ENERGY PERFORMANCE - ELECTRICITY PEAK DEMAND' invalid Variable or Meter Name 'HEATREJECTION:ELECTRICITY'\n   ** Warning ** In Output:Table:Monthly 'BUILDING ENERGY PERFORMANCE - ELECTRICITY PEAK DEMAND' invalid Variable or Meter Name 'HUMIDIFIER:ELECTRICITY'\n   ** Warning ** In Output:Table:Monthly 'BUILDING ENERGY PERFORMANCE - ELECTRICITY PEAK DEMAND' invalid Variable or Meter Name 'HEATRECOVERY:ELECTRICITY'\n   ** Warning ** In Output:Table:Monthly 'BUILDING ENERGY PERFORMANCE - ELECTRICITY PEAK DEMAND' invalid Variable or Meter Name 'COGENERATION:ELECTRICITY'\n   ** Warning ** In Output:Table:Monthly 'BUILDING ENERGY PERFORMANCE - NATURAL GAS PEAK DEMAND' invalid Variable or Meter Name 'INTERIOREQUIPMENT:NATURALGAS'\n   ** Warning ** In Output:Table:Monthly 'BUILDING ENERGY PERFORMANCE - NATURAL GAS PEAK DEMAND' invalid Variable or Meter Name 'EXTERIOREQUIPMENT:NATURALGAS'\n   ** Warning ** In Output:Table:Monthly 'BUILDING ENERGY PERFORMANCE - NATURAL GAS PEAK DEMAND' invalid Variable or Meter Name 'COOLING:NATURALGAS'\n   ** Warning ** In Output:Table:Monthly 'BUILDING ENERGY PERFORMANCE - NATURAL GAS PEAK DEMAND' invalid Variable or Meter Name 'WATERSYSTEMS:NATURALGAS'\n   ** Warning ** In Output:Table:Monthly 'BUILDING ENERGY PERFORMANCE - NATURAL GAS PEAK DEMAND' invalid Variable or Meter Name 'COGENERATION:NATURALGAS'\n   ** Warning ** In Output:Table:Monthly 'BUILDING ENERGY PERFORMANCE - DISTRICT HEATING PEAK DEMAND' invalid Variable or Meter Name 'DISTRICTHEATING:FACILITY'\n   ** Warning ** In Output:Table:Monthly 'BUILDING ENERGY PERFORMANCE - DISTRICT HEATING PEAK DEMAND' invalid Variable or Meter Name 'INTERIORLIGHTS:DISTRICTHEATING'\n   ** Warning ** In Output:Table:Monthly 'BUILDING ENERGY PERFORMANCE - DISTRICT HEATING PEAK DEMAND' invalid Variable or Meter Name 'EXTERIORLIGHTS:DISTRICTHEATING'\n   ** Warning ** In Output:Table:Monthly 'BUILDING ENERGY PERFORMANCE - DISTRICT HEATING PEAK DEMAND' invalid Variable or Meter Name 'INTERIOREQUIPMENT:DISTRICTHEATING'\n   ** Warning ** In Output:Table:Monthly 'BUILDING ENERGY PERFORMANCE - DISTRICT HEATING PEAK DEMAND' invalid Variable or Meter Name 'EXTERIOREQUIPMENT:DISTRICTHEATING'\n   ** Warning ** In Output:Table:Monthly 'BUILDING ENERGY PERFORMANCE - DISTRICT HEATING PEAK DEMAND' invalid Variable or Meter Name 'FANS:DISTRICTHEATING'\n   ** Warning ** In Output:Table:Monthly 'BUILDING ENERGY PERFORMANCE - DISTRICT HEATING PEAK DEMAND' invalid Variable or Meter Name 'PUMPS:DISTRICTHEATING'\n   ** Warning ** In Output:Table:Monthly 'BUILDING ENERGY PERFORMANCE - DISTRICT HEATING PEAK DEMAND' invalid Variable or Meter Name 'HEATING:DISTRICTHEATING'\n   ** Warning ** In Output:Table:Monthly 'BUILDING ENERGY PERFORMANCE - DISTRICT HEATING PEAK DEMAND' invalid Variable or Meter Name 'COOLING:DISTRICTHEATING'\n   ** Warning ** In Output:Table:Monthly 'BUILDING ENERGY PERFORMANCE - DISTRICT HEATING PEAK DEMAND' invalid Variable or Meter Name 'HEATREJECTION:DISTRICTHEATING'\n   ** Warning ** In Output:Table:Monthly 'BUILDING ENERGY PERFORMANCE - DISTRICT HEATING PEAK DEMAND' invalid Variable or Meter Name 'HUMIDIFIER:DISTRICTHEATING'\n   ** Warning ** In Output:Table:Monthly 'BUILDING ENERGY PERFORMANCE - DISTRICT HEATING PEAK DEMAND' invalid Variable or Meter Name 'HEATRECOVERY:DISTRICTHEATING'\n   ** Warning ** In Output:Table:Monthly 'BUILDING ENERGY PERFORMANCE - DISTRICT HEATING PEAK DEMAND' invalid Variable or Meter Name 'WATERSYSTEMS:DISTRICTHEATING'\n   ** Warning ** In Output:Table:Monthly 'BUILDING ENERGY PERFORMANCE - DISTRICT HEATING PEAK DEMAND' invalid Variable or Meter Name 'COGENERATION:DISTRICTHEATING'\n   ** Warning ** In Output:Table:Monthly 'BUILDING ENERGY PERFORMANCE - DISTRICT COOLING PEAK DEMAND' invalid Variable or Meter Name 'DISTRICTCOOLING:FACILITY'\n   ** Warning ** In Output:Table:Monthly 'BUILDING ENERGY PERFORMANCE - DISTRICT COOLING PEAK DEMAND' invalid Variable or Meter Name 'INTERIORLIGHTS:DISTRICTCOOLING'\n   ** Warning ** In Output:Table:Monthly 'BUILDING ENERGY PERFORMANCE - DISTRICT COOLING PEAK DEMAND' invalid Variable or Meter Name 'EXTERIORLIGHTS:DISTRICTCOOLING'\n   ** Warning ** In Output:Table:Monthly 'BUILDING ENERGY PERFORMANCE - DISTRICT COOLING PEAK DEMAND' invalid Variable or Meter Name 'INTERIOREQUIPMENT:DISTRICTCOOLING'\n   ** Warning ** In Output:Table:Monthly 'BUILDING ENERGY PERFORMANCE - DISTRICT COOLING PEAK DEMAND' invalid Variable or Meter Name 'EXTERIOREQUIPMENT:DISTRICTCOOLING'\n   ** Warning ** In Output:Table:Monthly 'BUILDING ENERGY PERFORMANCE - DISTRICT COOLING PEAK DEMAND' invalid Variable or Meter Name 'FANS:DISTRICTCOOLING'\n   ** Warning ** In Output:Table:Monthly 'BUILDING ENERGY PERFORMANCE - DISTRICT COOLING PEAK DEMAND' invalid Variable or Meter Name 'PUMPS:DISTRICTCOOLING'\n   ** Warning ** In Output:Table:Monthly 'BUILDING ENERGY PERFORMANCE - DISTRICT COOLING PEAK DEMAND' invalid Variable or Meter Name 'HEATING:DISTRICTCOOLING'\n   ** Warning ** In Output:Table:Monthly 'BUILDING ENERGY PERFORMANCE - DISTRICT COOLING PEAK DEMAND' invalid Variable or Meter Name 'COOLING:DISTRICTCOOLING'\n   ** Warning ** In Output:Table:Monthly 'BUILDING ENERGY PERFORMANCE - DISTRICT COOLING PEAK DEMAND' invalid Variable or Meter Name 'HEATREJECTION:DISTRICTCOOLING'\n   ** Warning ** In Output:Table:Monthly 'BUILDING ENERGY PERFORMANCE - DISTRICT COOLING PEAK DEMAND' invalid Variable or Meter Name 'HUMIDIFIER:DISTRICTCOOLING'\n   ** Warning ** In Output:Table:Monthly 'BUILDING ENERGY PERFORMANCE - DISTRICT COOLING PEAK DEMAND' invalid Variable or Meter Name 'HEATRECOVERY:DISTRICTCOOLING'\n   ** Warning ** In Output:Table:Monthly 'BUILDING ENERGY PERFORMANCE - DISTRICT COOLING PEAK DEMAND' invalid Variable or Meter Name 'WATERSYSTEMS:DISTRICTCOOLING'\n   ** Warning ** In Output:Table:Monthly 'BUILDING ENERGY PERFORMANCE - DISTRICT COOLING PEAK DEMAND' invalid Variable or Meter Name 'COGENERATION:DISTRICTCOOLING'\n   ** Warning ** Processing Monthly Tabular Reports: Variable names not valid for this simulation\n   **   ~~~   ** ...use Output:Diagnostics,DisplayExtraWarnings; to show more details on individual variables.\n   ** Warning ** CalcEquipmentFlowRates: \"MAIN SERVICE WATER USE 0.06GPM AT 140F\" - Target water temperature is greater than the hot water temperature (0.13 C)\n   **   ~~~   **  Environment=RUN PERIOD 1, at Simulation time=01/02 07:00 - 07:10\n   **   ~~~   ** ...target water temperature       = 60.00 C\n   **   ~~~   ** ...hot water temperature       = 59.87 C\n   **   ~~~   ** ...Note: target water temperature should be less than or equal to the hot water temperature\n   **   ~~~   ** ...Target water temperature should be less than or equal to the hot water temperature. Verify temperature setpoints and schedules.\n   ** Warning ** CalcDoe2DXCoil: Coil:Cooling:DX:SingleSpeed \"CORE_ZN ZN PSZ-AC-1 1SPD DX HP CLG COIL 27KBTU/HR 13.0SEER\" - Full load outlet air dry-bulb temperature < 2C. This indicates the possibility of coil frost/freeze. Outlet temperature = 1.98 C.\n   **   ~~~   **  ...Occurrence info = RUN PERIOD 1, 01/04 06:20 - 06:30\n   **   ~~~   ** ... Possible reasons for low outlet air dry-bulb temperatures are: This DX coil\n   **   ~~~   **    1) may have a low inlet air dry-bulb temperature. Inlet air temperature = 20.202 C.\n   **   ~~~   **    2) may have a low air flow rate per watt of cooling capacity. Check inputs.\n   **   ~~~   **    3) is used as part of a HX assisted cooling coil which uses a high sensible effectiveness. Check inputs.\n   ** Warning ** The resource referenced by LifeCycleCost:UsePriceEscalation= \"U.S. AVG  COMMERCIAL-ELECTRICITY\" has no energy cost. \n   **   ~~~   ** ... It is likely that the wrong resource is used. The resource should match the meter used in Utility:Tariff.\n   ** Warning ** The resource referenced by LifeCycleCost:UsePriceEscalation= \"U.S. AVG  COMMERCIAL-DISTILLATE OIL\" has no energy cost. \n   **   ~~~   ** ... It is likely that the wrong resource is used. The resource should match the meter used in Utility:Tariff.\n   ** Warning ** The resource referenced by LifeCycleCost:UsePriceEscalation= \"U.S. AVG  COMMERCIAL-RESIDUAL OIL\" has no energy cost. \n   **   ~~~   ** ... It is likely that the wrong resource is used. The resource should match the meter used in Utility:Tariff.\n   ** Warning ** The resource referenced by LifeCycleCost:UsePriceEscalation= \"U.S. AVG  COMMERCIAL-NATURAL GAS\" has no energy cost. \n   **   ~~~   ** ... It is likely that the wrong resource is used. The resource should match the meter used in Utility:Tariff.\n   ** Warning ** The resource referenced by LifeCycleCost:UsePriceEscalation= \"U.S. AVG  COMMERCIAL-COAL\" has no energy cost. \n   **   ~~~   ** ... It is likely that the wrong resource is used. The resource should match the meter used in Utility:Tariff.\n   ************* Simulation Error Summary *************\n   ************* There are 7 unused schedules in input.\n   ************* There are 7 unused week schedules in input.\n   ************* There are 18 unused day schedules in input.\n   ************* Use Output:Diagnostics,DisplayUnusedSchedules; to see them.\n   *************\n   ************* ===== Recurring Error Summary =====\n   ************* The following recurring error messages occurred.\n   *************\n   *************  ** Warning ** \"MAIN SERVICE WATER USE 0.06GPM AT 140F\" - Target water temperature should be less than or equal to the hot water temperature error continues...\n   *************  **   ~~~   **   This error occurred 419859 total times;\n   *************  **   ~~~   **   during Warmup 0 times;\n   *************  **   ~~~   **   during Sizing 0 times.\n   *************  **   ~~~   **   Max=1.927589  Min=0.133195\n   *************\n   *************  ** Warning ** CalcDoe2DXCoil: Coil:Cooling:DX:SingleSpeed=\"CORE_ZN ZN PSZ-AC-1 1SPD DX HP CLG COIL 27KBTU/HR 13.0SEER\" - Full load outlet temperature indicates a possibility of frost/freeze error continues. Outlet air temperature statistics follow:\n   *************  **   ~~~   **   This error occurred 35 total times;\n   *************  **   ~~~   **   during Warmup 0 times;\n   *************  **   ~~~   **   during Sizing 0 times.\n   *************  **   ~~~   **   Max=1.994745  Min=1.535805\n   *************\n   *************\n   ************* ===== Final Error Summary =====\n   ************* The following error categories occurred.  Consider correcting or noting.\n   ************* Nominally Unused Constructions\n   ************* ..The nominally unused constructions warning is provided to alert you to potential conditions that can cause\n   ************* ..extra time during simulation. Each construction is calculated by the algorithm indicated in the HeatBalanceAlgorithm\n   ************* ..object. You may remove the constructions indicated (when you use the DisplayExtraWarnings option).\n   *************\n   ************* EnergyPlus Warmup Error Summary. During Warmup: 0 Warning; 0 Severe Errors.\n   ************* EnergyPlus Sizing Error Summary. During Sizing: 29 Warning; 0 Severe Errors.\n   ************* EnergyPlus Completed Successfully-- 420019 Warning; 0 Severe Errors; Elapsed Time=00hr 00min 26.36sec\n",
   "file_paths" : 
   [
      "/Users/tmarzull/Documents/BRICK/working/eptobrick/alfalfa/tests/PrimarySchool/primaryschool/generated_files",
      "./weather/",
      "./files",
      "./weather",
      "../../files",
      "../../weather",
      "./"
   ],
   "hash" : "536C5F32",
   "measure_paths" : 
   [
      "./measures/"
   ],
   "run_directory" : "./run/",
   "seed_file" : "../primaryschool.osm",
   "started_at" : "20221129T053546Z",
   "steps" : 
   [
      {
         "arguments" : 
         {
            "building_type" : "PrimarySchool",
            "climate_zone" : "ASHRAE 169-2013-3C",
            "template" : "90.1-2016"
         },
         "description" : "Creates the DOE Reference Building Models as starting points for other analyses.",
         "measure_dir_name" : "CreateDOEPrototypeBuilding",
         "modeler_description" : "",
         "name" : "Create DOE Prototype Building",
         "result" : 
         {
            "completed_at" : "20221129T053610Z",
            "measure_class_name" : "CreateDOEPrototypeBuilding",
            "measure_display_name" : "Create DOE Prototype Building",
            "measure_name" : "create_doe_prototype_building",
            "measure_taxonomy" : "Whole Building.Space Types",
            "measure_type" : "ModelMeasure",
            "measure_uid" : "be90fd0b-a651-467a-bc8d-29d310b0f937",
            "measure_version_id" : "14417c24-7976-4c99-9fd2-26251d6bf196",
            "measure_version_modified" : "20221121T182626Z",
            "measure_xml_checksum" : "057E8D9D",
            "started_at" : "20221129T053551Z",
            "stderr" : "",
            "stdout" : "[openstudio.model.YearDescription] <1> 'UseWeatherFile' is selected in YearDescription, but there are no weather file set for the model.\n[openstudio.model.YearDescription] <1> 'UseWeatherFile' is selected in YearDescription, but there are no weather file set for the model.\n",
            "step_errors" : [],
            "step_files" : [],
            "step_info" : 
            [
               "Using OpenStudio Standards version 0.2.16 with template 90.1-2016_PrimarySchool.",
               "Loading OpenStudio Standards data for 90.1-2016",
               "Loaded space type map from osm file: ../../../data/geometry/ASHRAEPrimarySchool.osm",
               "Started applying space types (loads)",
               "PrimarySchool Cafeteria had no people, one has been created.",
               "PrimarySchool Cafeteria set occupancy to 100.0 people/1000 ft^2.",
               "PrimarySchool Cafeteria had no lights, one has been created.",
               "PrimarySchool Cafeteria set LPD to 0.63 W/ft^2.",
               "PrimarySchool Cafeteria had no electric equipment, one has been created.",
               "PrimarySchool Cafeteria set electric EPD to 2.3588 W/ft^2.",
               "PrimarySchool Cafeteria had no ventilation specification, one has been created.",
               "PrimarySchool Cafeteria set ventilation per area to 0.18 cfm/ft^2.",
               "PrimarySchool Cafeteria set ventilation per person to 7.5 cfm/person.",
               "PrimarySchool Cafeteria had no infiltration objects, one has been created.",
               "PrimarySchool Cafeteria set infiltration to 0.0 per ft^2 exterior surface area.",
               "PrimarySchool Cafeteria set occupancy schedule to SchoolPrimary BLDG_OCC_SCH_Cafeteria.",
               "PrimarySchool Cafeteria set occupant activity schedule to SchoolPrimary ACTIVITY_SCH.",
               "PrimarySchool Cafeteria set lighting schedule to SchoolPrimary BLDG_LIGHT_SCH_2013.",
               "PrimarySchool Cafeteria set electric equipment schedule to SchoolPrimary KITCHEN_ELEC_EQUIP_SCH.",
               "PrimarySchool Cafeteria set infiltration schedule to SchoolPrimary INFIL_SCH_PNNL.",
               "PrimarySchool Cafeteria set heating setpoint schedule to SchoolPrimary HTGSETP_SCH_NO_OPTIMUM.",
               "PrimarySchool Cafeteria set cooling setpoint schedule to SchoolPrimary CLGSETP_SCH_NO_OPTIMUM.",
               "PrimarySchool Classroom had no people, one has been created.",
               "PrimarySchool Classroom set occupancy to 25.0 people/1000 ft^2.",
               "PrimarySchool Classroom had no lights, one has been created.",
               "PrimarySchool Classroom set LPD to 0.92 W/ft^2.",
               "PrimarySchool Classroom had no electric equipment, one has been created.",
               "PrimarySchool Classroom set electric EPD to 1.3935 W/ft^2.",
               "PrimarySchool Classroom had no ventilation specification, one has been created.",
               "PrimarySchool Classroom set ventilation per area to 0.12 cfm/ft^2.",
               "PrimarySchool Classroom set ventilation per person to 10.0 cfm/person.",
               "PrimarySchool Classroom had no infiltration objects, one has been created.",
               "PrimarySchool Classroom set infiltration to 0.0 per ft^2 exterior surface area.",
               "PrimarySchool Classroom set occupancy schedule to SchoolPrimary BLDG_OCC_SCH.",
               "PrimarySchool Classroom set occupant activity schedule to SchoolPrimary ACTIVITY_SCH.",
               "PrimarySchool Classroom set lighting schedule to SchoolPrimary BLDG_LIGHT_CLASSROOM_SCH_2013.",
               "PrimarySchool Classroom set electric equipment schedule to SchoolPrimary BLDG_EQUIP_SCH_2013.",
               "PrimarySchool Classroom set infiltration schedule to SchoolPrimary INFIL_SCH_PNNL.",
               "PrimarySchool Classroom set heating setpoint schedule to SchoolPrimary HTGSETP_SCH_NO_OPTIMUM.",
               "PrimarySchool Classroom set cooling setpoint schedule to SchoolPrimary CLGSETP_SCH_NO_OPTIMUM.",
               "PrimarySchool ComputerRoom had no people, one has been created.",
               "PrimarySchool ComputerRoom set occupancy to 25.0 people/1000 ft^2.",
               "PrimarySchool ComputerRoom had no lights, one has been created.",
               "PrimarySchool ComputerRoom set LPD to 0.92 W/ft^2.",
               "PrimarySchool ComputerRoom had no electric equipment, one has been created.",
               "PrimarySchool ComputerRoom set electric EPD to 1.8581 W/ft^2.",
               "PrimarySchool ComputerRoom had no ventilation specification, one has been created.",
               "PrimarySchool ComputerRoom set ventilation per area to 0.12 cfm/ft^2.",
               "PrimarySchool ComputerRoom set ventilation per person to 10.0 cfm/person.",
               "PrimarySchool ComputerRoom had no infiltration objects, one has been created.",
               "PrimarySchool ComputerRoom set infiltration to 0.0 per ft^2 exterior surface area.",
               "PrimarySchool ComputerRoom set occupancy schedule to SchoolPrimary BLDG_OCC_SCH_Extend.",
               "PrimarySchool ComputerRoom set occupant activity schedule to SchoolPrimary ACTIVITY_SCH.",
               "PrimarySchool ComputerRoom set lighting schedule to SchoolPrimary BLDG_LIGHT_CLASSROOM_SCH_2013.",
               "PrimarySchool ComputerRoom set electric equipment schedule to SchoolPrimary BLDG_EQUIP_SCH_2013.",
               "PrimarySchool ComputerRoom set infiltration schedule to SchoolPrimary INFIL_SCH_PNNL.",
               "PrimarySchool ComputerRoom set heating setpoint schedule to SchoolPrimary HTGSETP_SCH_NO_OPTIMUM.",
               "PrimarySchool ComputerRoom set cooling setpoint schedule to SchoolPrimary CLGSETP_SCH_NO_OPTIMUM.",
               "PrimarySchool Corridor had no lights, one has been created.",
               "PrimarySchool Corridor set LPD to 0.66 W/ft^2.",
               "PrimarySchool Corridor had no electric equipment, one has been created.",
               "PrimarySchool Corridor set electric EPD to 0.3716 W/ft^2.",
               "PrimarySchool Corridor had no ventilation specification, one has been created.",
               "PrimarySchool Corridor set ventilation per area to 0.06 cfm/ft^2.",
               "PrimarySchool Corridor had no infiltration objects, one has been created.",
               "PrimarySchool Corridor set infiltration to 0.0 per ft^2 exterior surface area.",
               "PrimarySchool Corridor set occupancy schedule to SchoolPrimary BLDG_OCC_SCH.",
               "PrimarySchool Corridor set occupant activity schedule to SchoolPrimary ACTIVITY_SCH.",
               "PrimarySchool Corridor set lighting schedule to SchoolPrimary BLDG_LIGHT_CORRIDOR_SCH_2013.",
               "PrimarySchool Corridor set electric equipment schedule to SchoolPrimary BLDG_EQUIP_SCH_2013.",
               "PrimarySchool Corridor set infiltration schedule to SchoolPrimary INFIL_SCH_PNNL.",
               "PrimarySchool Corridor set heating setpoint schedule to SchoolPrimary HTGSETP_SCH_NO_OPTIMUM.",
               "PrimarySchool Corridor set cooling setpoint schedule to SchoolPrimary CLGSETP_SCH_NO_OPTIMUM.",
               "PrimarySchool Gym had no people, one has been created.",
               "PrimarySchool Gym set occupancy to 30.0 people/1000 ft^2.",
               "PrimarySchool Gym had no lights, one has been created.",
               "PrimarySchool Gym set LPD to 0.5 W/ft^2.",
               "PrimarySchool Gym had no electric equipment, one has been created.",
               "PrimarySchool Gym set electric EPD to 0.4645 W/ft^2.",
               "PrimarySchool Gym had no ventilation specification, one has been created.",
               "PrimarySchool Gym set ventilation per area to 0.3 cfm/ft^2.",
               "PrimarySchool Gym had no infiltration objects, one has been created.",
               "PrimarySchool Gym set infiltration to 0.0 per ft^2 exterior surface area.",
               "PrimarySchool Gym set occupancy schedule to SchoolPrimary BLDG_OCC_SCH_Gym.",
               "PrimarySchool Gym set occupant activity schedule to SchoolPrimary ACTIVITY_SCH.",
               "PrimarySchool Gym set lighting schedule to SchoolPrimary BLDG_LIGHT_GYM_SCH_2013.",
               "PrimarySchool Gym set electric equipment schedule to SchoolPrimary BLDG_EQUIP_SCH_2013.",
               "PrimarySchool Gym set infiltration schedule to SchoolPrimary INFIL_SCH_PNNL.",
               "PrimarySchool Gym set heating setpoint schedule to SchoolPrimary HTGSETP_SCH_NO_OPTIMUM.",
               "PrimarySchool Gym set cooling setpoint schedule to SchoolPrimary CLGSETP_SCH_NO_OPTIMUM.",
               "PrimarySchool Kitchen had no people, one has been created.",
               "PrimarySchool Kitchen set occupancy to 14.93 people/1000 ft^2.",
               "PrimarySchool Kitchen had no lights, one has been created.",
               "PrimarySchool Kitchen set LPD to 1.06 W/ft^2.",
               "PrimarySchool Kitchen had no electric equipment, one has been created.",
               "PrimarySchool Kitchen set electric EPD to 17.6934 W/ft^2.",
               "PrimarySchool Kitchen had no gas equipment, one has been created.",
               "PrimarySchool Kitchen set gas EPD to 453.7 Btu/hr*ft^2.",
               "PrimarySchool Kitchen had no ventilation specification, one has been created.",
               "PrimarySchool Kitchen set ventilation per area to 0.18 cfm/ft^2.",
               "PrimarySchool Kitchen set ventilation per person to 7.5 cfm/person.",
               "PrimarySchool Kitchen had no infiltration objects, one has been created.",
               "PrimarySchool Kitchen set infiltration to 0.0 per ft^2 exterior surface area.",
               "PrimarySchool Kitchen set occupancy schedule to SchoolPrimary BLDG_OCC_SCH.",
               "PrimarySchool Kitchen set occupant activity schedule to SchoolPrimary ACTIVITY_SCH.",
               "PrimarySchool Kitchen set lighting schedule to SchoolPrimary BLDG_LIGHT_SCH_2013.",
               "PrimarySchool Kitchen set electric equipment schedule to SchoolPrimary KITCHEN_ELEC_EQUIP_SCH.",
               "PrimarySchool Kitchen set gas equipment schedule to SchoolPrimary KITCHEN_GAS_EQUIP_SCH.",
               "PrimarySchool Kitchen set infiltration schedule to SchoolPrimary INFIL_SCH_PNNL.",
               "PrimarySchool Kitchen set heating setpoint schedule to SchoolPrimary HTGSETP_SCH_NO_OPTIMUM.",
               "PrimarySchool Kitchen set cooling setpoint schedule to SchoolPrimary CLGSETP_SCH_NO_OPTIMUM.",
               "PrimarySchool Library had no people, one has been created.",
               "PrimarySchool Library set occupancy to 10.0 people/1000 ft^2.",
               "PrimarySchool Library had no lights, one has been created.",
               "PrimarySchool Library set LPD to 0.78 W/ft^2.",
               "PrimarySchool Library had no electric equipment, one has been created.",
               "PrimarySchool Library set electric EPD to 1.3935 W/ft^2.",
               "PrimarySchool Library had no ventilation specification, one has been created.",
               "PrimarySchool Library set ventilation per area to 0.12 cfm/ft^2.",
               "PrimarySchool Library set ventilation per person to 10.0 cfm/person.",
               "PrimarySchool Library had no infiltration objects, one has been created.",
               "PrimarySchool Library set infiltration to 0.0 per ft^2 exterior surface area.",
               "PrimarySchool Library set occupancy schedule to SchoolPrimary BLDG_OCC_SCH.",
               "PrimarySchool Library set occupant activity schedule to SchoolPrimary ACTIVITY_SCH.",
               "PrimarySchool Library set lighting schedule to SchoolPrimary BLDG_LIGHT_LIBRARY_SCH_2013.",
               "PrimarySchool Library set electric equipment schedule to SchoolPrimary BLDG_EQUIP_SCH_2013.",
               "PrimarySchool Library set infiltration schedule to SchoolPrimary INFIL_SCH_PNNL.",
               "PrimarySchool Library set heating setpoint schedule to SchoolPrimary HTGSETP_SCH_NO_OPTIMUM.",
               "PrimarySchool Library set cooling setpoint schedule to SchoolPrimary CLGSETP_SCH_NO_OPTIMUM.",
               "PrimarySchool Lobby had no lights, one has been created.",
               "PrimarySchool Lobby set LPD to 1.0 W/ft^2.",
               "PrimarySchool Lobby had no electric equipment, one has been created.",
               "PrimarySchool Lobby set electric EPD to 0.3716 W/ft^2.",
               "PrimarySchool Lobby had no ventilation specification, one has been created.",
               "PrimarySchool Lobby set ventilation per area to 0.06 cfm/ft^2.",
               "PrimarySchool Lobby had no infiltration objects, one has been created.",
               "PrimarySchool Lobby set infiltration to 0.0 per ft^2 exterior surface area.",
               "PrimarySchool Lobby set occupancy schedule to SchoolPrimary BLDG_OCC_SCH.",
               "PrimarySchool Lobby set occupant activity schedule to SchoolPrimary ACTIVITY_SCH.",
               "PrimarySchool Lobby set lighting schedule to SchoolPrimary BLDG_LIGHT_LOBBYFLR1_SCH_2013.",
               "PrimarySchool Lobby set electric equipment schedule to SchoolPrimary BLDG_EQUIP_SCH_2013.",
               "PrimarySchool Lobby set infiltration schedule to SchoolPrimary INFIL_SCH_PNNL.",
               "PrimarySchool Lobby set heating setpoint schedule to SchoolPrimary HTGSETP_SCH_NO_OPTIMUM.",
               "PrimarySchool Lobby set cooling setpoint schedule to SchoolPrimary CLGSETP_SCH_NO_OPTIMUM.",
               "PrimarySchool Mechanical had no lights, one has been created.",
               "PrimarySchool Mechanical set LPD to 0.43 W/ft^2.",
               "PrimarySchool Mechanical had no electric equipment, one has been created.",
               "PrimarySchool Mechanical set electric EPD to 0.929 W/ft^2.",
               "PrimarySchool Mechanical had no ventilation specification, one has been created.",
               "PrimarySchool Mechanical set ventilation per area to 0.12 cfm/ft^2.",
               "PrimarySchool Mechanical had no infiltration objects, one has been created.",
               "PrimarySchool Mechanical set infiltration to 0.0 per ft^2 exterior surface area.",
               "PrimarySchool Mechanical set occupancy schedule to SchoolPrimary BLDG_OCC_SCH.",
               "PrimarySchool Mechanical set occupant activity schedule to SchoolPrimary ACTIVITY_SCH.",
               "PrimarySchool Mechanical set lighting schedule to SchoolPrimary BLDG_LIGHT_SCH_2013.",
               "PrimarySchool Mechanical set electric equipment schedule to SchoolPrimary BLDG_EQUIP_SCH_2013.",
               "PrimarySchool Mechanical set infiltration schedule to SchoolPrimary INFIL_SCH_PNNL.",
               "PrimarySchool Mechanical set heating setpoint schedule to SchoolPrimary HTGSETP_SCH_NO_OPTIMUM.",
               "PrimarySchool Mechanical set cooling setpoint schedule to SchoolPrimary CLGSETP_SCH_NO_OPTIMUM.",
               "PrimarySchool Office had no people, one has been created.",
               "PrimarySchool Office set occupancy to 5.0 people/1000 ft^2.",
               "PrimarySchool Office had no lights, one has been created.",
               "PrimarySchool Office set LPD to 0.93 W/ft^2.",
               "PrimarySchool Office had no electric equipment, one has been created.",
               "PrimarySchool Office set electric EPD to 1.0034 W/ft^2.",
               "PrimarySchool Office had no ventilation specification, one has been created.",
               "PrimarySchool Office set ventilation per area to 0.06 cfm/ft^2.",
               "PrimarySchool Office set ventilation per person to 5.0 cfm/person.",
               "PrimarySchool Office had no infiltration objects, one has been created.",
               "PrimarySchool Office set infiltration to 0.0 per ft^2 exterior surface area.",
               "PrimarySchool Office set occupancy schedule to SchoolPrimary BLDG_OCC_SCH_Offices.",
               "PrimarySchool Office set occupant activity schedule to SchoolPrimary ACTIVITY_SCH.",
               "PrimarySchool Office set lighting schedule to SchoolPrimary BLDG_LIGHT_SCH_2013.",
               "PrimarySchool Office set electric equipment schedule to SchoolPrimary BLDG_EQUIP_SCH_2013.",
               "PrimarySchool Office set infiltration schedule to SchoolPrimary INFIL_SCH_PNNL.",
               "PrimarySchool Office set heating setpoint schedule to SchoolPrimary HTGSETP_SCH_NO_OPTIMUM.",
               "PrimarySchool Office set cooling setpoint schedule to SchoolPrimary CLGSETP_SCH_NO_OPTIMUM.",
               "PrimarySchool Restroom had no lights, one has been created.",
               "PrimarySchool Restroom set LPD to 0.85 W/ft^2.",
               "PrimarySchool Restroom had no electric equipment, one has been created.",
               "PrimarySchool Restroom set electric EPD to 0.3716 W/ft^2.",
               "PrimarySchool Restroom had no ventilation specification, one has been created.",
               "PrimarySchool Restroom set ventilation per area to 0.06 cfm/ft^2.",
               "PrimarySchool Restroom had no infiltration objects, one has been created.",
               "PrimarySchool Restroom set infiltration to 0.0 per ft^2 exterior surface area.",
               "PrimarySchool Restroom set occupancy schedule to SchoolPrimary BLDG_OCC_SCH.",
               "PrimarySchool Restroom set occupant activity schedule to SchoolPrimary ACTIVITY_SCH.",
               "PrimarySchool Restroom set lighting schedule to SchoolPrimary BLDG_LIGHT_BATH_SCH_2013.",
               "PrimarySchool Restroom set electric equipment schedule to SchoolPrimary BLDG_EQUIP_SCH_2013.",
               "PrimarySchool Restroom set infiltration schedule to SchoolPrimary INFIL_SCH_PNNL.",
               "PrimarySchool Restroom set heating setpoint schedule to SchoolPrimary HTGSETP_SCH_NO_OPTIMUM.",
               "PrimarySchool Restroom set cooling setpoint schedule to SchoolPrimary CLGSETP_SCH_NO_OPTIMUM.",
               "Finished applying space types (loads)",
               "For Bath_ZN_1_FLR_1, set infiltration rate to 0.112 cfm/ft2 exterior wall area (aka 1.0 cfm/ft2 @75Pa).",
               "For Cafeteria_ZN_1_FLR_1, set infiltration rate to 0.112 cfm/ft2 exterior wall area (aka 1.0 cfm/ft2 @75Pa).",
               "For Computer_Class_ZN_1_FLR_1, set infiltration rate to 0.112 cfm/ft2 exterior wall area (aka 1.0 cfm/ft2 @75Pa).",
               "For Corner_Class_1_Pod_1_ZN_1_FLR_1, set infiltration rate to 0.112 cfm/ft2 exterior wall area (aka 1.0 cfm/ft2 @75Pa).",
               "For Corner_Class_1_Pod_2_ZN_1_FLR_1, set infiltration rate to 0.112 cfm/ft2 exterior wall area (aka 1.0 cfm/ft2 @75Pa).",
               "For Corner_Class_1_Pod_3_ZN_1_FLR_1, set infiltration rate to 0.112 cfm/ft2 exterior wall area (aka 1.0 cfm/ft2 @75Pa).",
               "For Corner_Class_2_Pod_1_ZN_1_FLR_1, set infiltration rate to 0.112 cfm/ft2 exterior wall area (aka 1.0 cfm/ft2 @75Pa).",
               "For Corner_Class_2_Pod_2_ZN_1_FLR_1, set infiltration rate to 0.112 cfm/ft2 exterior wall area (aka 1.0 cfm/ft2 @75Pa).",
               "For Corner_Class_2_Pod_3_ZN_1_FLR_1, set infiltration rate to 0.112 cfm/ft2 exterior wall area (aka 1.0 cfm/ft2 @75Pa).",
               "For Corridor_Pod_1_ZN_1_FLR_1, set infiltration rate to 0.112 cfm/ft2 exterior wall area (aka 1.0 cfm/ft2 @75Pa).",
               "For Corridor_Pod_2_ZN_1_FLR_1, set infiltration rate to 0.112 cfm/ft2 exterior wall area (aka 1.0 cfm/ft2 @75Pa).",
               "For Corridor_Pod_3_ZN_1_FLR_1, set infiltration rate to 0.112 cfm/ft2 exterior wall area (aka 1.0 cfm/ft2 @75Pa).",
               "For Gym_ZN_1_FLR_1, set infiltration rate to 0.112 cfm/ft2 exterior wall area (aka 1.0 cfm/ft2 @75Pa).",
               "For Kitchen_ZN_1_FLR_1, set infiltration rate to 0.112 cfm/ft2 exterior wall area (aka 1.0 cfm/ft2 @75Pa).",
               "For Library_Media_Center_ZN_1_FLR_1, set infiltration rate to 0.112 cfm/ft2 exterior wall area (aka 1.0 cfm/ft2 @75Pa).",
               "For Lobby_ZN_1_FLR_1, set infiltration rate to 0.112 cfm/ft2 exterior wall area (aka 1.0 cfm/ft2 @75Pa).",
               "For Main_Corridor_ZN_1_FLR_1, set infiltration rate to 0.112 cfm/ft2 exterior wall area (aka 1.0 cfm/ft2 @75Pa).",
               "For Mech_ZN_1_FLR_1, no exterior wall area was found, no infiltration will be added.",
               "For Mult_Class_1_Pod_1_ZN_1_FLR_1, set infiltration rate to 0.112 cfm/ft2 exterior wall area (aka 1.0 cfm/ft2 @75Pa).",
               "For Mult_Class_1_Pod_2_ZN_1_FLR_1, set infiltration rate to 0.112 cfm/ft2 exterior wall area (aka 1.0 cfm/ft2 @75Pa).",
               "For Mult_Class_1_Pod_3_ZN_1_FLR_1, set infiltration rate to 0.112 cfm/ft2 exterior wall area (aka 1.0 cfm/ft2 @75Pa).",
               "For Mult_Class_2_Pod_1_ZN_1_FLR_1, set infiltration rate to 0.112 cfm/ft2 exterior wall area (aka 1.0 cfm/ft2 @75Pa).",
               "For Mult_Class_2_Pod_2_ZN_1_FLR_1, set infiltration rate to 0.112 cfm/ft2 exterior wall area (aka 1.0 cfm/ft2 @75Pa).",
               "For Mult_Class_2_Pod_3_ZN_1_FLR_1, set infiltration rate to 0.112 cfm/ft2 exterior wall area (aka 1.0 cfm/ft2 @75Pa).",
               "For Offices_ZN_1_FLR_1, set infiltration rate to 0.112 cfm/ft2 exterior wall area (aka 1.0 cfm/ft2 @75Pa).",
               "Started creating thermal zones",
               "Finished creating thermal zones",
               "Started adding weather file for climate zone: ASHRAE 169-2013-3C.",
               "Extracting weather files from OpenStudio CLI to /Users/tmarzull/Documents/BRICK/working/eptobrick/alfalfa/tests/PrimarySchool/primaryschool/run/000_CreateDOEPrototypeBuilding/extracted_files/weather",
               "Added San.Diego-Brown.Field.Muni.AP_CA_USA Ann Clg .4% Condns DB=>MWB design day.",
               "Added San.Diego-Brown.Field.Muni.AP_CA_USA Ann Htg 99.6% Condns DB design day.",
               "Started Adding HVAC",
               "Adding hot water loop.",
               "Adding Packaged VAV for 5 zones.",
               "For PVAV_POD_1: VAV damper action was set to Dual Maximum control.",
               "Adding Packaged VAV for 5 zones.",
               "For PVAV_POD_2: VAV damper action was set to Dual Maximum control.",
               "Adding Packaged VAV for 5 zones.",
               "For PVAV_POD_3: VAV damper action was set to Dual Maximum control.",
               "Adding Packaged VAV for 7 zones.",
               "For PVAV_OTHER: VAV damper action was set to Dual Maximum control.",
               "Adding PSZ-AC for Kitchen_ZN_1_FLR_1 ZN.",
               "Adding PSZ-AC for Gym_ZN_1_FLR_1 ZN.",
               "Adding PSZ-AC for Cafeteria_ZN_1_FLR_1 ZN.",
               "Adding zone exhaust fan for Kitchen_ZN_1_FLR_1 ZN.",
               "Adding zone exhaust fan for Bath_ZN_1_FLR_1 ZN.",
               "Adding Low Temp refrigeration system called RefrSystem - Primary School with 1 cases and 1 walkins.",
               "Added 12 ft display case called Case Primary School with a cooling capacity of 9167 Btu/hr to Kitchen_ZN_1_FLR_1 ZN.",
               "Added 120 ft2 walkin called Walk-In Primary School with a capacity of 9167 Btu/hr to Kitchen_ZN_1_FLR_1 ZN.",
               "Finished adding HVAC",
               "Started applying constructions",
               "Adding construction set: 90.1-2016-ASHRAE 169-2013-3C-PrimarySchool--is_residentialNo",
               "Adding construction Typical Insulated Exterior Mass Floor R-13.51.",
               "Adding construction Typical Insulated Steel Framed Exterior Wall R-12.99.",
               "Adding construction Typical IEAD Roof - Highly Reflective R-25.64.",
               "Adding construction Typical Interior Floor.",
               "Adding construction Typical Interior Wall.",
               "Adding construction Typical Interior Ceiling.",
               "Adding construction Typical Insulated Carpeted 8in Slab Floor.",
               "Adding construction Typical Insulated Basement Mass Wall.",
               "Adding construction U 0.45 SHGC 0.25 Simple Glazing Window Weighted U-0.45 SHGC 0.25.",
               "Adding construction U 0.45 SHGC 0.25 Simple Glazing Window Weighted U-0.45 SHGC 0.25 1.",
               "Adding construction Typical Insulated Metal Door R-2.7.",
               "Adding construction U 0.45 SHGC 0.25 Simple Glazing Window Weighted U-0.45 SHGC 0.25 2.",
               "Adding construction Typical Overhead Door R-3.23.",
               "Adding construction U 0.55 SHGC 0.35 Simple Glazing Window U-0.55 SHGC 0.35.",
               "Adding construction Typical Interior Window.",
               "Adding construction Typical Interior Door.",
               "Adding construction Typical Interior Partition.",
               "Construction set for template =90.1-2016, climate zone set =ClimateZone 3C, building type = PrimarySchool, space type = Cafeteria, is residential = No was not found in standards_data",
               "Construction set for template =90.1-2016, climate zone set =ClimateZone 3C, building type = PrimarySchool, space type = Classroom, is residential = No was not found in standards_data",
               "Construction set for template =90.1-2016, climate zone set =ClimateZone 3C, building type = PrimarySchool, space type = ComputerRoom, is residential = No was not found in standards_data",
               "Construction set for template =90.1-2016, climate zone set =ClimateZone 3C, building type = PrimarySchool, space type = Corridor, is residential = No was not found in standards_data",
               "Construction set for template =90.1-2016, climate zone set =ClimateZone 3C, building type = PrimarySchool, space type = Gym, is residential = No was not found in standards_data",
               "Construction set for template =90.1-2016, climate zone set =ClimateZone 3C, building type = PrimarySchool, space type = Kitchen, is residential = No was not found in standards_data",
               "Construction set for template =90.1-2016, climate zone set =ClimateZone 3C, building type = PrimarySchool, space type = Library, is residential = No was not found in standards_data",
               "Construction set for template =90.1-2016, climate zone set =ClimateZone 3C, building type = PrimarySchool, space type = Lobby, is residential = No was not found in standards_data",
               "Construction set for template =90.1-2016, climate zone set =ClimateZone 3C, building type = PrimarySchool, space type = Mechanical, is residential = No was not found in standards_data",
               "Construction set for template =90.1-2016, climate zone set =ClimateZone 3C, building type = PrimarySchool, space type = Office, is residential = No was not found in standards_data",
               "Construction set for template =90.1-2016, climate zone set =ClimateZone 3C, building type = PrimarySchool, space type = Restroom, is residential = No was not found in standards_data",
               "Finished applying constructions",
               "Started building type specific HVAC adjustments",
               "Added internal mass 'Offices_ZN_1_FLR_1 Mass' to space 'Offices_ZN_1_FLR_1'.",
               "Added internal mass 'Corner_Class_1_Pod_2_ZN_1_FLR_1 Mass' to space 'Corner_Class_1_Pod_2_ZN_1_FLR_1'.",
               "Added internal mass 'Corner_Class_2_Pod_1_ZN_1_FLR_1 Mass' to space 'Corner_Class_2_Pod_1_ZN_1_FLR_1'.",
               "Added internal mass 'Mult_Class_2_Pod_3_ZN_1_FLR_1 Mass' to space 'Mult_Class_2_Pod_3_ZN_1_FLR_1'.",
               "Added internal mass 'Cafeteria_ZN_1_FLR_1 Mass' to space 'Cafeteria_ZN_1_FLR_1'.",
               "Added internal mass 'Mech_ZN_1_FLR_1 Mass' to space 'Mech_ZN_1_FLR_1'.",
               "Added internal mass 'Corner_Class_1_Pod_3_ZN_1_FLR_1 Mass' to space 'Corner_Class_1_Pod_3_ZN_1_FLR_1'.",
               "Added internal mass 'Mult_Class_2_Pod_1_ZN_1_FLR_1 Mass' to space 'Mult_Class_2_Pod_1_ZN_1_FLR_1'.",
               "Added internal mass 'Gym_ZN_1_FLR_1 Mass' to space 'Gym_ZN_1_FLR_1'.",
               "Added internal mass 'Corridor_Pod_3_ZN_1_FLR_1 Mass' to space 'Corridor_Pod_3_ZN_1_FLR_1'.",
               "Added internal mass 'Corner_Class_1_Pod_1_ZN_1_FLR_1 Mass' to space 'Corner_Class_1_Pod_1_ZN_1_FLR_1'.",
               "Added internal mass 'Mult_Class_1_Pod_1_ZN_1_FLR_1 Mass' to space 'Mult_Class_1_Pod_1_ZN_1_FLR_1'.",
               "Added internal mass 'Corridor_Pod_2_ZN_1_FLR_1 Mass' to space 'Corridor_Pod_2_ZN_1_FLR_1'.",
               "Added internal mass 'Corner_Class_2_Pod_2_ZN_1_FLR_1 Mass' to space 'Corner_Class_2_Pod_2_ZN_1_FLR_1'.",
               "Added internal mass 'Bath_ZN_1_FLR_1 Mass' to space 'Bath_ZN_1_FLR_1'.",
               "Added internal mass 'Kitchen_ZN_1_FLR_1 Mass' to space 'Kitchen_ZN_1_FLR_1'.",
               "Added internal mass 'Mult_Class_1_Pod_2_ZN_1_FLR_1 Mass' to space 'Mult_Class_1_Pod_2_ZN_1_FLR_1'.",
               "Added internal mass 'Corridor_Pod_1_ZN_1_FLR_1 Mass' to space 'Corridor_Pod_1_ZN_1_FLR_1'.",
               "Added internal mass 'Mult_Class_1_Pod_3_ZN_1_FLR_1 Mass' to space 'Mult_Class_1_Pod_3_ZN_1_FLR_1'.",
               "Added internal mass 'Computer_Class_ZN_1_FLR_1 Mass' to space 'Computer_Class_ZN_1_FLR_1'.",
               "Added internal mass 'Mult_Class_2_Pod_2_ZN_1_FLR_1 Mass' to space 'Mult_Class_2_Pod_2_ZN_1_FLR_1'.",
               "Added internal mass 'Lobby_ZN_1_FLR_1 Mass' to space 'Lobby_ZN_1_FLR_1'.",
               "Added internal mass 'Library_Media_Center_ZN_1_FLR_1 Mass' to space 'Library_Media_Center_ZN_1_FLR_1'.",
               "Added internal mass 'Main_Corridor_ZN_1_FLR_1 Mass' to space 'Main_Corridor_ZN_1_FLR_1'.",
               "Added internal mass 'Corner_Class_2_Pod_3_ZN_1_FLR_1 Mass' to space 'Corner_Class_2_Pod_3_ZN_1_FLR_1'.",
               "Finished adding internal mass",
               "Started Adding Service Water Heating",
               "Added water heater called 200gal Natural Gas Water Heater - 200kBtu/hr",
               "Added circulating SWH loop called Main Service Water Loop",
               "Adding water fixture to Main Service Water Loop.",
               "Added Main Service Water Use 1.7gpm at 140F.",
               "Adding booster water heater to Main Service Water Loop",
               "Adding water fixture to Service Water Loop.",
               "Finished adding Service Water Heating",
               "Started adding exterior lights",
               "Finished adding exterior lights",
               "Set Daylight Saving Start Date to 2nd Sunday in March and end date to 1st Sunday in November.",
               "Extracting stat file from OpenStudio CLI to /Users/tmarzull/Documents/BRICK/working/eptobrick/alfalfa/tests/PrimarySchool/primaryschool/run/000_CreateDOEPrototypeBuilding/extracted_files/weather",
               "Running simulation /Users/tmarzull/Documents/BRICK/working/eptobrick/alfalfa/tests/PrimarySchool/primaryschool/run/000_CreateDOEPrototypeBuilding/output/SR1.",
               "does not have an Output Variable attached.",
               "does not have an Output Meter attached.",
               "does not have an Output Variable attached.",
               "does not have an Output Meter attached.",
               "does not have an Output Variable attached.",
               "does not have an Output Meter attached.",
               "does not have an Output Variable attached.",
               "does not have an Output Meter attached.",
               "does not have an Output Variable attached.",
               "does not have an Output Meter attached.",
               "does not have an Output Variable attached.",
               "does not have an Output Meter attached.",
               "does not have an Output Variable attached.",
               "does not have an Output Meter attached.",
               "does not have an Output Variable attached.",
               "does not have an Output Meter attached.",
               "does not have an Output Variable attached.",
               "does not have an Output Meter attached.",
               "does not have an Output Variable attached.",
               "does not have an Output Meter attached.",
               "does not have an Output Variable attached.",
               "does not have an Output Meter attached.",
               "does not have an Output Variable attached.",
               "does not have an Output Meter attached.",
               "does not have an Output Variable attached.",
               "does not have an Output Meter attached.",
               "does not have an Output Variable attached.",
               "does not have an Output Meter attached.",
               "does not have an Output Variable attached.",
               "does not have an Output Meter attached.",
               "does not have an Output Variable attached.",
               "does not have an Output Meter attached.",
               "does not have an Output Variable attached.",
               "does not have an Output Meter attached.",
               "does not have an Output Variable attached.",
               "does not have an Output Meter attached.",
               "does not have an Output Variable attached.",
               "does not have an Output Meter attached.",
               "does not have an Output Variable attached.",
               "does not have an Output Meter attached.",
               "does not have an Output Variable attached.",
               "does not have an Output Meter attached.",
               "does not have an Output Variable attached.",
               "does not have an Output Meter attached.",
               "does not have an Output Variable attached.",
               "does not have an Output Meter attached.",
               "does not have an Output Variable attached.",
               "does not have an Output Meter attached.",
               "does not have an Output Variable attached.",
               "does not have an Output Meter attached.",
               "does not have an Output Variable attached.",
               "does not have an Output Meter attached.",
               "does not have an Output Variable attached.",
               "does not have an Output Meter attached.",
               "does not have an Output Variable attached.",
               "does not have an Output Meter attached.",
               "Finished run.",
               "Started applying multizone vav OA sizing.",
               "For PVAV_OTHER: Zone Computer_Class_ZN_1_FLR_1 ZN has a ventilation effectiveness of -1.28.  Increasing to 0.6 by increasing minimum damper position from 0.2 to 0.74.",
               "For PVAV_OTHER: Zone Library_Media_Center_ZN_1_FLR_1 ZN has a ventilation effectiveness of -0.78.  Increasing to 0.6 by increasing minimum damper position from 0.2 to 0.6.",
               "For PVAV_OTHER: Zone Lobby_ZN_1_FLR_1 ZN has a ventilation effectiveness of 0.56.  Increasing to 0.6 by increasing minimum damper position from 0.2 to 0.21.",
               "For PVAV_OTHER: Zone Main_Corridor_ZN_1_FLR_1 ZN has a ventilation effectiveness of 0.09.  Increasing to 0.6 by increasing minimum damper position from 0.2 to 0.35.",
               "For PVAV_OTHER: Zone Mech_ZN_1_FLR_1 ZN has a ventilation effectiveness of -0.75.  Increasing to 0.6 by increasing minimum damper position from 0.2 to 0.59.",
               "For PVAV_OTHER: Zone Offices_ZN_1_FLR_1 ZN has a ventilation effectiveness of 0.43.  Increasing to 0.6 by increasing minimum damper position from 0.2 to 0.25.",
               "For PVAV_OTHER: the multizone outdoor air calculation method was applied.  A simple summation of the zone outdoor air requirements gives a value of 2782 cfm.  Applying the multizone method gives a value of -2182 cfm, with an original system ventilation effectiveness of -1.28.  After increasing the minimum damper position in 6 critical zones, the resulting requirement is 4637 cfm with a system ventilation effectiveness of 0.6.",
               "For PVAV_POD_1: Zone Corner_Class_1_Pod_1_ZN_1_FLR_1 ZN has a ventilation effectiveness of -0.54.  Increasing to 0.6 by increasing minimum damper position from 0.2 to 0.46.",
               "For PVAV_POD_1: Zone Corner_Class_2_Pod_1_ZN_1_FLR_1 ZN has a ventilation effectiveness of -0.7.  Increasing to 0.6 by increasing minimum damper position from 0.2 to 0.49.",
               "For PVAV_POD_1: Zone Mult_Class_1_Pod_1_ZN_1_FLR_1 ZN has a ventilation effectiveness of -1.0.  Increasing to 0.6 by increasing minimum damper position from 0.2 to 0.56.",
               "For PVAV_POD_1: Zone Mult_Class_2_Pod_1_ZN_1_FLR_1 ZN has a ventilation effectiveness of -1.38.  Increasing to 0.6 by increasing minimum damper position from 0.2 to 0.64.",
               "For PVAV_POD_1: the multizone outdoor air calculation method was applied.  A simple summation of the zone outdoor air requirements gives a value of 4712 cfm.  Applying the multizone method gives a value of -3426 cfm, with an original system ventilation effectiveness of -1.38.  After increasing the minimum damper position in 4 critical zones, the resulting requirement is 7853 cfm with a system ventilation effectiveness of 0.6.",
               "For PVAV_POD_2: Zone Corner_Class_1_Pod_2_ZN_1_FLR_1 ZN has a ventilation effectiveness of -0.55.  Increasing to 0.6 by increasing minimum damper position from 0.2 to 0.46.",
               "For PVAV_POD_2: Zone Corner_Class_2_Pod_2_ZN_1_FLR_1 ZN has a ventilation effectiveness of -0.7.  Increasing to 0.6 by increasing minimum damper position from 0.2 to 0.49.",
               "For PVAV_POD_2: Zone Corridor_Pod_2_ZN_1_FLR_1 ZN has a ventilation effectiveness of 0.6.  Increasing to 0.6 by increasing minimum damper position from 0.2 to 0.2.",
               "For PVAV_POD_2: Zone Mult_Class_1_Pod_2_ZN_1_FLR_1 ZN has a ventilation effectiveness of -1.02.  Increasing to 0.6 by increasing minimum damper position from 0.2 to 0.56.",
               "For PVAV_POD_2: Zone Mult_Class_2_Pod_2_ZN_1_FLR_1 ZN has a ventilation effectiveness of -1.37.  Increasing to 0.6 by increasing minimum damper position from 0.2 to 0.64.",
               "For PVAV_POD_2: the multizone outdoor air calculation method was applied.  A simple summation of the zone outdoor air requirements gives a value of 4712 cfm.  Applying the multizone method gives a value of -3437 cfm, with an original system ventilation effectiveness of -1.37.  After increasing the minimum damper position in 5 critical zones, the resulting requirement is 7853 cfm with a system ventilation effectiveness of 0.6.",
               "For PVAV_POD_3: Zone Corner_Class_1_Pod_3_ZN_1_FLR_1 ZN has a ventilation effectiveness of -0.56.  Increasing to 0.6 by increasing minimum damper position from 0.2 to 0.46.",
               "For PVAV_POD_3: Zone Corner_Class_2_Pod_3_ZN_1_FLR_1 ZN has a ventilation effectiveness of -0.7.  Increasing to 0.6 by increasing minimum damper position from 0.2 to 0.5.",
               "For PVAV_POD_3: Zone Corridor_Pod_3_ZN_1_FLR_1 ZN has a ventilation effectiveness of 0.59.  Increasing to 0.6 by increasing minimum damper position from 0.2 to 0.2.",
               "For PVAV_POD_3: Zone Mult_Class_1_Pod_3_ZN_1_FLR_1 ZN has a ventilation effectiveness of -1.02.  Increasing to 0.6 by increasing minimum damper position from 0.2 to 0.57.",
               "For PVAV_POD_3: Zone Mult_Class_2_Pod_3_ZN_1_FLR_1 ZN has a ventilation effectiveness of -1.34.  Increasing to 0.6 by increasing minimum damper position from 0.2 to 0.64.",
               "For PVAV_POD_3: the multizone outdoor air calculation method was applied.  A simple summation of the zone outdoor air requirements gives a value of 4067 cfm.  Applying the multizone method gives a value of -3046 cfm, with an original system ventilation effectiveness of -1.34.  After increasing the minimum damper position in 5 critical zones, the resulting requirement is 6778 cfm with a system ventilation effectiveness of 0.6.",
               "Finished applying multizone vav OA sizing.",
               "Started applying prototype HVAC assumptions.",
               "For Prototype: PVAV_OTHER Fan: 9518cfm; Pressure Rise = 5.58in w.c.",
               "For Prototype: PVAV_POD_1 Fan: 9602cfm; Pressure Rise = 5.58in w.c.",
               "For Prototype: PVAV_POD_2 Fan: 9551cfm; Pressure Rise = 5.58in w.c.",
               "For Prototype: PVAV_POD_3 Fan: 8491cfm; Pressure Rise = 5.58in w.c.",
               "For Prototype: Cafeteria_ZN_1_FLR_1 ZN PSZ-AC_2-7 Fan: 4167cfm; Pressure Rise = 2.5in w.c.",
               "For Prototype: Gym_ZN_1_FLR_1 ZN PSZ-AC_2-5 Fan: 2165cfm; Pressure Rise = 2.5in w.c.",
               "For Prototype: Kitchen_ZN_1_FLR_1 ZN PSZ-AC_1-6 Fan: 2123cfm; Pressure Rise = 2.5in w.c.",
               "For Prototype: Bath_ZN_1_FLR_1 ZN Exhaust Fan: Pressure Rise = 0.5in w.c.",
               "For Prototype: Kitchen_ZN_1_FLR_1 ZN Exhaust Fan: Pressure Rise = 0.5in w.c.",
               "For PVAV_OTHER Fan: allowed_hp = 14.14HP; motor eff = 92.4%; total fan eff = 60% based on 9518 cfm.",
               "For PVAV_POD_1 Fan: allowed_hp = 14.27HP; motor eff = 92.4%; total fan eff = 60% based on 9602 cfm.",
               "For PVAV_POD_2 Fan: allowed_hp = 14.19HP; motor eff = 92.4%; total fan eff = 60% based on 9551 cfm.",
               "For PVAV_POD_3 Fan: allowed_hp = 12.62HP; motor eff = 92.4%; total fan eff = 60% based on 8491 cfm.",
               "For Cafeteria_ZN_1_FLR_1 ZN PSZ-AC_2-7 Fan: allowed_hp = 2.77HP; motor eff = 89.5%; total fan eff = 58% based on 4167 cfm.",
               "For Gym_ZN_1_FLR_1 ZN PSZ-AC_2-5 Fan: allowed_hp = 1.44HP; motor eff = 86.5%; total fan eff = 56% based on 2165 cfm.",
               "For Kitchen_ZN_1_FLR_1 ZN PSZ-AC_1-6 Fan: allowed_hp = 1.41HP; motor eff = 86.5%; total fan eff = 56% based on 2123 cfm.",
               "For Bath_ZN_1_FLR_1 ZN Exhaust Fan: allowed_hp = 0.09HP; motor eff = 70.0%; total fan eff = 39% based on 600 cfm.",
               "For Kitchen_ZN_1_FLR_1 ZN Exhaust Fan: allowed_hp = 0.71HP; motor eff = 70.0%; total fan eff = 39% based on 4500 cfm.",
               "Cafeteria_ZN_1_FLR_1 ZN PSZ-AC_2-7 requires an economizer because the total cooling capacity of 145846 Btu/hr exceeds the minimum capacity of 54000 Btu/hr.",
               "Gym_ZN_1_FLR_1 ZN PSZ-AC_2-5 requires an economizer because the total cooling capacity of 69240 Btu/hr exceeds the minimum capacity of 54000 Btu/hr.",
               "Kitchen_ZN_1_FLR_1 ZN PSZ-AC_1-6 requires an economizer because the total cooling capacity of 73888 Btu/hr exceeds the minimum capacity of 54000 Btu/hr.",
               "PVAV_OTHER requires an economizer because the total cooling capacity of 281036 Btu/hr exceeds the minimum capacity of 54000 Btu/hr.",
               "PVAV_POD_1 requires an economizer because the total cooling capacity of 314247 Btu/hr exceeds the minimum capacity of 54000 Btu/hr.",
               "PVAV_POD_2 requires an economizer because the total cooling capacity of 312833 Btu/hr exceeds the minimum capacity of 54000 Btu/hr.",
               "PVAV_POD_3 requires an economizer because the total cooling capacity of 276758 Btu/hr exceeds the minimum capacity of 54000 Btu/hr.",
               "Finished applying prototype HVAC assumptions.",
               "Started applying HVAC efficiency standards for 90.1-2016 template.",
               "For Cafeteria_ZN_1_FLR_1 ZN PSZ-AC_2-7: Availability schedule is already set to SchoolPrimary HVACOperationSchd.  Will assume this includes unoccupied shut down; no changes will be made.",
               "For Cafeteria_ZN_1_FLR_1 ZN PSZ-AC_2-7, ERV not required based on 76% OA flow, design supply air flow of 4167cfm, and climate zone ASHRAE 169-2013-3C.",
               "For Cafeteria_ZN_1_FLR_1 ZN PSZ-AC_2-7: Economizer type = DifferentialDryBulb, limits",
               "For Cafeteria_ZN_1_FLR_1 ZN: DCV is required since the occupant density of 100 people/1000 ft2 is above minimum occupant density of 25 people/1000 ft2 and the area of 3391 ft2 is above the minimum size of 500 ft2.",
               "For Cafeteria_ZN_1_FLR_1 ZN PSZ-AC_2-7: Enabled DCV.",
               "For Cafeteria_ZN_1_FLR_1 ZN PSZ-AC_2-7: Converting ventilation requirements to per-area for all zones served that do not require DCV.",
               "For Cafeteria_ZN_1_FLR_1 ZN: DCV is required since the occupant density of 100 people/1000 ft2 is above minimum occupant density of 25 people/1000 ft2 and the area of 3391 ft2 is above the minimum size of 500 ft2.",
               "For Cafeteria_ZN_1_FLR_1 ZN PSZ-AC_2-7: Because the system has an economizer, it requires a motorized OA damper.",
               "For Cafeteria_ZN_1_FLR_1 ZN PSZ-AC_2-7: Min OA damper schedule is already set to SchoolPrimary MinOA_MotorizedDamper_Sched, assume this includes correct motorized OA damper control.",
               "For Cafeteria_ZN_1_FLR_1 ZN PSZ-AC_2-7: Optimum start is not required since design flow rate of 4167 cfm is below the limit of 10000 cfm.",
               "For Cafeteria_ZN_1_FLR_1 ZN PSZ-AC_2-7: two-stage control is required since cooling capacity of 145846 Btu/hr exceeds the minimum of 65000 Btu/hr .",
               "For Cafeteria_ZN_1_FLR_1 ZN PSZ-AC_2-7: No supply fan found, cannot apply DX fan/economizer control.",
               "For Gym_ZN_1_FLR_1 ZN PSZ-AC_2-5: Availability schedule is already set to SchoolPrimary HVACOperationSchd.  Will assume this includes unoccupied shut down; no changes will be made.",
               "For Gym_ZN_1_FLR_1 ZN PSZ-AC_2-5, ERV not required based on 53% OA flow, design supply air flow of 2165cfm, and climate zone ASHRAE 169-2013-3C.",
               "For Gym_ZN_1_FLR_1 ZN PSZ-AC_2-5: Economizer type = DifferentialDryBulb, limits",
               "For Gym_ZN_1_FLR_1 ZN: DCV is required since the occupant density of 30 people/1000 ft2 is above minimum occupant density of 25 people/1000 ft2 and the area of 3843 ft2 is above the minimum size of 500 ft2.",
               "For Gym_ZN_1_FLR_1 ZN PSZ-AC_2-5: Enabled DCV.",
               "For Gym_ZN_1_FLR_1 ZN PSZ-AC_2-5: Converting ventilation requirements to per-area for all zones served that do not require DCV.",
               "For Gym_ZN_1_FLR_1 ZN: DCV is required since the occupant density of 30 people/1000 ft2 is above minimum occupant density of 25 people/1000 ft2 and the area of 3843 ft2 is above the minimum size of 500 ft2.",
               "For Gym_ZN_1_FLR_1 ZN PSZ-AC_2-5: Because the system has an economizer, it requires a motorized OA damper.",
               "For Gym_ZN_1_FLR_1 ZN PSZ-AC_2-5: Min OA damper schedule is already set to SchoolPrimary MinOA_MotorizedDamper_Sched, assume this includes correct motorized OA damper control.",
               "For Gym_ZN_1_FLR_1 ZN PSZ-AC_2-5: Optimum start is not required since design flow rate of 2165 cfm is below the limit of 10000 cfm.",
               "For Gym_ZN_1_FLR_1 ZN PSZ-AC_2-5: two-stage control is required since cooling capacity of 69240 Btu/hr exceeds the minimum of 65000 Btu/hr .",
               "For Gym_ZN_1_FLR_1 ZN PSZ-AC_2-5: No supply fan found, cannot apply DX fan/economizer control.",
[...]
               "[openstudio.standards.Model] Find object search criteria returned 2 results, the first one will be returned. Called from :/ruby/2.7.0/gems/openstudio-standards-0.2.16/lib/openstudio-standards/standards/Standards.CoilCoolingDXSingleSpeed.rb:61:in `coil_cooling_dx_single_speed_standard_minimum_cop'. \n Search criteria: \n {\"template\"=>\"90.1-2010\", \"cooling_type\"=>\"AirCooled\", \"subcategory\"=>\"Single Package\"}, capacity = 27378.652492450892 \n  All results: \n {\"template\"=>\"90.1-2010\", \"cooling_type\"=>\"AirCooled\", \"heating_type\"=>\"All Other\", \"subcategory\"=>\"Single Package\", \"minimum_capacity\"=>0.0, \"maximum_capacity\"=>64999.0, \"start_date\"=>\"1919-09-09T00:00:00+00:00\", \"end_date\"=>\"2999-09-09T00:00:00+00:00\", \"minimum_seasonal_energy_efficiency_ratio\"=>13.0, \"minimum_energy_efficiency_ratio\"=>nil, \"minimum_integrated_part_load_value\"=>nil, \"minimum_integrated_energy_efficiency_ratio\"=>nil, \"ptac_eer_coefficient_1\"=>nil, \"ptac_eer_coefficient_2\"=>nil, \"minimum_scop\"=>nil, \"cool_cap_ft\"=>\"PSZ-Fine Storage DX Coil Cap-FT\", \"cool_cap_fflow\"=>\"DX Coil Cap-FF\", \"cool_eir_ft\"=>\"PSZ-AC DX Coil EIR-FT\", \"cool_eir_fflow\"=>\"Split DX Coil EIR-FF\", \"cool_plf_fplr\"=>\"HPACCOOLPLFFPLR\", \"notes\"=>nil}\n{\"template\"=>\"90.1-2010\", \"cooling_type\"=>\"AirCooled\", \"heating_type\"=>\"Electric Resistance or None\", \"subcategory\"=>\"Single Package\", \"minimum_capacity\"=>0.0, \"maximum_capacity\"=>64999.0, \"start_date\"=>\"1919-09-09T00:00:00+00:00\", \"end_date\"=>\"2999-09-09T00:00:00+00:00\", \"minimum_seasonal_energy_efficiency_ratio\"=>13.0, \"minimum_energy_efficiency_ratio\"=>nil, \"minimum_integrated_part_load_value\"=>nil, \"minimum_integrated_energy_efficiency_ratio\"=>nil, \"ptac_eer_coefficient_1\"=>nil, \"ptac_eer_coefficient_2\"=>nil, \"minimum_scop\"=>nil, \"cool_cap_ft\"=>\"PSZ-Fine Storage DX Coil Cap-FT\", \"cool_cap_fflow\"=>\"DX Coil Cap-FF\", \"cool_eir_ft\"=>\"PSZ-AC DX Coil EIR-FT\", \"cool_eir_fflow\"=>\"Split DX Coil EIR-FF\", \"cool_plf_fplr\"=>\"HPACCOOLPLFFPLR\", \"notes\"=>nil}",
               "[openstudio.standards.Model] Find object search criteria returned 2 results, the first one will be returned. Called from :/ruby/2.7.0/gems/openstudio-standards-0.2.16/lib/openstudio-standards/standards/Standards.CoilCoolingDXSingleSpeed.rb:191:in `coil_cooling_dx_single_speed_apply_efficiency_and_curves'. \n Search criteria: \n {\"template\"=>\"90.1-2010\", \"cooling_type\"=>\"AirCooled\", \"subcategory\"=>\"Single Package\"}, capacity = 31126.782098189564 \n  All results: \n {\"template\"=>\"90.1-2010\", \"cooling_type\"=>\"AirCooled\", \"heating_type\"=>\"All Other\", \"subcategory\"=>\"Single Package\", \"minimum_capacity\"=>0.0, \"maximum_capacity\"=>64999.0, \"start_date\"=>\"1919-09-09T00:00:00+00:00\", \"end_date\"=>\"2999-09-09T00:00:00+00:00\", \"minimum_seasonal_energy_efficiency_ratio\"=>13.0, \"minimum_energy_efficiency_ratio\"=>nil, \"minimum_integrated_part_load_value\"=>nil, \"minimum_integrated_energy_efficiency_ratio\"=>nil, \"ptac_eer_coefficient_1\"=>nil, \"ptac_eer_coefficient_2\"=>nil, \"minimum_scop\"=>nil, \"cool_cap_ft\"=>\"PSZ-Fine Storage DX Coil Cap-FT\", \"cool_cap_fflow\"=>\"DX Coil Cap-FF\", \"cool_eir_ft\"=>\"PSZ-AC DX Coil EIR-FT\", \"cool_eir_fflow\"=>\"Split DX Coil EIR-FF\", \"cool_plf_fplr\"=>\"HPACCOOLPLFFPLR\", \"notes\"=>nil}\n{\"template\"=>\"90.1-2010\", \"cooling_type\"=>\"AirCooled\", \"heating_type\"=>\"Electric Resistance or None\", \"subcategory\"=>\"Single Package\", \"minimum_capacity\"=>0.0, \"maximum_capacity\"=>64999.0, \"start_date\"=>\"1919-09-09T00:00:00+00:00\", \"end_date\"=>\"2999-09-09T00:00:00+00:00\", \"minimum_seasonal_energy_efficiency_ratio\"=>13.0, \"minimum_energy_efficiency_ratio\"=>nil, \"minimum_integrated_part_load_value\"=>nil, \"minimum_integrated_energy_efficiency_ratio\"=>nil, \"ptac_eer_coefficient_1\"=>nil, \"ptac_eer_coefficient_2\"=>nil, \"minimum_scop\"=>nil, \"cool_cap_ft\"=>\"PSZ-Fine Storage DX Coil Cap-FT\", \"cool_cap_fflow\"=>\"DX Coil Cap-FF\", \"cool_eir_ft\"=>\"PSZ-AC DX Coil EIR-FT\", \"cool_eir_fflow\"=>\"Split DX Coil EIR-FF\", \"cool_plf_fplr\"=>\"HPACCOOLPLFFPLR\", \"notes\"=>nil}",
               "[openstudio.standards.Model] Find object search criteria returned 2 results, the first one will be returned. Called from :/ruby/2.7.0/gems/openstudio-standards-0.2.16/lib/openstudio-standards/standards/Standards.CoilCoolingDXSingleSpeed.rb:61:in `coil_cooling_dx_single_speed_standard_minimum_cop'. \n Search criteria: \n {\"template\"=>\"90.1-2010\", \"cooling_type\"=>\"AirCooled\", \"subcategory\"=>\"Single Package\"}, capacity = 31126.782098189564 \n  All results: \n {\"template\"=>\"90.1-2010\", \"cooling_type\"=>\"AirCooled\", \"heating_type\"=>\"All Other\", \"subcategory\"=>\"Single Package\", \"minimum_capacity\"=>0.0, \"maximum_capacity\"=>64999.0, \"start_date\"=>\"1919-09-09T00:00:00+00:00\", \"end_date\"=>\"2999-09-09T00:00:00+00:00\", \"minimum_seasonal_energy_efficiency_ratio\"=>13.0, \"minimum_energy_efficiency_ratio\"=>nil, \"minimum_integrated_part_load_value\"=>nil, \"minimum_integrated_energy_efficiency_ratio\"=>nil, \"ptac_eer_coefficient_1\"=>nil, \"ptac_eer_coefficient_2\"=>nil, \"minimum_scop\"=>nil, \"cool_cap_ft\"=>\"PSZ-Fine Storage DX Coil Cap-FT\", \"cool_cap_fflow\"=>\"DX Coil Cap-FF\", \"cool_eir_ft\"=>\"PSZ-AC DX Coil EIR-FT\", \"cool_eir_fflow\"=>\"Split DX Coil EIR-FF\", \"cool_plf_fplr\"=>\"HPACCOOLPLFFPLR\", \"notes\"=>nil}\n{\"template\"=>\"90.1-2010\", \"cooling_type\"=>\"AirCooled\", \"heating_type\"=>\"Electric Resistance or None\", \"subcategory\"=>\"Single Package\", \"minimum_capacity\"=>0.0, \"maximum_capacity\"=>64999.0, \"start_date\"=>\"1919-09-09T00:00:00+00:00\", \"end_date\"=>\"2999-09-09T00:00:00+00:00\", \"minimum_seasonal_energy_efficiency_ratio\"=>13.0, \"minimum_energy_efficiency_ratio\"=>nil, \"minimum_integrated_part_load_value\"=>nil, \"minimum_integrated_energy_efficiency_ratio\"=>nil, \"ptac_eer_coefficient_1\"=>nil, \"ptac_eer_coefficient_2\"=>nil, \"minimum_scop\"=>nil, \"cool_cap_ft\"=>\"PSZ-Fine Storage DX Coil Cap-FT\", \"cool_cap_fflow\"=>\"DX Coil Cap-FF\", \"cool_eir_ft\"=>\"PSZ-AC DX Coil EIR-FT\", \"cool_eir_fflow\"=>\"Split DX Coil EIR-FF\", \"cool_plf_fplr\"=>\"HPACCOOLPLFFPLR\", \"notes\"=>nil}",
               "[openstudio.standards.Model] Find object search criteria returned 2 results, the first one will be returned. Called from :/ruby/2.7.0/gems/openstudio-standards-0.2.16/lib/openstudio-standards/standards/Standards.CoilCoolingDXSingleSpeed.rb:191:in `coil_cooling_dx_single_speed_apply_efficiency_and_curves'. \n Search criteria: \n {\"template\"=>\"90.1-2010\", \"cooling_type\"=>\"AirCooled\", \"subcategory\"=>\"Single Package\"}, capacity = 28720.984905146248 \n  All results: \n {\"template\"=>\"90.1-2010\", \"cooling_type\"=>\"AirCooled\", \"heating_type\"=>\"All Other\", \"subcategory\"=>\"Single Package\", \"minimum_capacity\"=>0.0, \"maximum_capacity\"=>64999.0, \"start_date\"=>\"1919-09-09T00:00:00+00:00\", \"end_date\"=>\"2999-09-09T00:00:00+00:00\", \"minimum_seasonal_energy_efficiency_ratio\"=>13.0, \"minimum_energy_efficiency_ratio\"=>nil, \"minimum_integrated_part_load_value\"=>nil, \"minimum_integrated_energy_efficiency_ratio\"=>nil, \"ptac_eer_coefficient_1\"=>nil, \"ptac_eer_coefficient_2\"=>nil, \"minimum_scop\"=>nil, \"cool_cap_ft\"=>\"PSZ-Fine Storage DX Coil Cap-FT\", \"cool_cap_fflow\"=>\"DX Coil Cap-FF\", \"cool_eir_ft\"=>\"PSZ-AC DX Coil EIR-FT\", \"cool_eir_fflow\"=>\"Split DX Coil EIR-FF\", \"cool_plf_fplr\"=>\"HPACCOOLPLFFPLR\", \"notes\"=>nil}\n{\"template\"=>\"90.1-2010\", \"cooling_type\"=>\"AirCooled\", \"heating_type\"=>\"Electric Resistance or None\", \"subcategory\"=>\"Single Package\", \"minimum_capacity\"=>0.0, \"maximum_capacity\"=>64999.0, \"start_date\"=>\"1919-09-09T00:00:00+00:00\", \"end_date\"=>\"2999-09-09T00:00:00+00:00\", \"minimum_seasonal_energy_efficiency_ratio\"=>13.0, \"minimum_energy_efficiency_ratio\"=>nil, \"minimum_integrated_part_load_value\"=>nil, \"minimum_integrated_energy_efficiency_ratio\"=>nil, \"ptac_eer_coefficient_1\"=>nil, \"ptac_eer_coefficient_2\"=>nil, \"minimum_scop\"=>nil, \"cool_cap_ft\"=>\"PSZ-Fine Storage DX Coil Cap-FT\", \"cool_cap_fflow\"=>\"DX Coil Cap-FF\", \"cool_eir_ft\"=>\"PSZ-AC DX Coil EIR-FT\", \"cool_eir_fflow\"=>\"Split DX Coil EIR-FF\", \"cool_plf_fplr\"=>\"HPACCOOLPLFFPLR\", \"notes\"=>nil}",
               "[openstudio.standards.Model] Find object search criteria returned 2 results, the first one will be returned. Called from :/ruby/2.7.0/gems/openstudio-standards-0.2.16/lib/openstudio-standards/standards/Standards.CoilCoolingDXSingleSpeed.rb:61:in `coil_cooling_dx_single_speed_standard_minimum_cop'. \n Search criteria: \n {\"template\"=>\"90.1-2010\", \"cooling_type\"=>\"AirCooled\", \"subcategory\"=>\"Single Package\"}, capacity = 28720.984905146248 \n  All results: \n {\"template\"=>\"90.1-2010\", \"cooling_type\"=>\"AirCooled\", \"heating_type\"=>\"All Other\", \"subcategory\"=>\"Single Package\", \"minimum_capacity\"=>0.0, \"maximum_capacity\"=>64999.0, \"start_date\"=>\"1919-09-09T00:00:00+00:00\", \"end_date\"=>\"2999-09-09T00:00:00+00:00\", \"minimum_seasonal_energy_efficiency_ratio\"=>13.0, \"minimum_energy_efficiency_ratio\"=>nil, \"minimum_integrated_part_load_value\"=>nil, \"minimum_integrated_energy_efficiency_ratio\"=>nil, \"ptac_eer_coefficient_1\"=>nil, \"ptac_eer_coefficient_2\"=>nil, \"minimum_scop\"=>nil, \"cool_cap_ft\"=>\"PSZ-Fine Storage DX Coil Cap-FT\", \"cool_cap_fflow\"=>\"DX Coil Cap-FF\", \"cool_eir_ft\"=>\"PSZ-AC DX Coil EIR-FT\", \"cool_eir_fflow\"=>\"Split DX Coil EIR-FF\", \"cool_plf_fplr\"=>\"HPACCOOLPLFFPLR\", \"notes\"=>nil}\n{\"template\"=>\"90.1-2010\", \"cooling_type\"=>\"AirCooled\", \"heating_type\"=>\"Electric Resistance or None\", \"subcategory\"=>\"Single Package\", \"minimum_capacity\"=>0.0, \"maximum_capacity\"=>64999.0, \"start_date\"=>\"1919-09-09T00:00:00+00:00\", \"end_date\"=>\"2999-09-09T00:00:00+00:00\", \"minimum_seasonal_energy_efficiency_ratio\"=>13.0, \"minimum_energy_efficiency_ratio\"=>nil, \"minimum_integrated_part_load_value\"=>nil, \"minimum_integrated_energy_efficiency_ratio\"=>nil, \"ptac_eer_coefficient_1\"=>nil, \"ptac_eer_coefficient_2\"=>nil, \"minimum_scop\"=>nil, \"cool_cap_ft\"=>\"PSZ-Fine Storage DX Coil Cap-FT\", \"cool_cap_fflow\"=>\"DX Coil Cap-FF\", \"cool_eir_ft\"=>\"PSZ-AC DX Coil EIR-FT\", \"cool_eir_fflow\"=>\"Split DX Coil EIR-FF\", \"cool_plf_fplr\"=>\"HPACCOOLPLFFPLR\", \"notes\"=>nil}",
               "[openstudio.standards.Model] Find object search criteria returned 2 results, the first one will be returned. Called from :/ruby/2.7.0/gems/openstudio-standards-0.2.16/lib/openstudio-standards/standards/Standards.CoilCoolingDXSingleSpeed.rb:191:in `coil_cooling_dx_single_speed_apply_efficiency_and_curves'. \n Search criteria: \n {\"template\"=>\"90.1-2010\", \"cooling_type\"=>\"AirCooled\", \"subcategory\"=>\"Single Package\"}, capacity = 30251.232907680052 \n  All results: \n {\"template\"=>\"90.1-2010\", \"cooling_type\"=>\"AirCooled\", \"heating_type\"=>\"All Other\", \"subcategory\"=>\"Single Package\", \"minimum_capacity\"=>0.0, \"maximum_capacity\"=>64999.0, \"start_date\"=>\"1919-09-09T00:00:00+00:00\", \"end_date\"=>\"2999-09-09T00:00:00+00:00\", \"minimum_seasonal_energy_efficiency_ratio\"=>13.0, \"minimum_energy_efficiency_ratio\"=>nil, \"minimum_integrated_part_load_value\"=>nil, \"minimum_integrated_energy_efficiency_ratio\"=>nil, \"ptac_eer_coefficient_1\"=>nil, \"ptac_eer_coefficient_2\"=>nil, \"minimum_scop\"=>nil, \"cool_cap_ft\"=>\"PSZ-Fine Storage DX Coil Cap-FT\", \"cool_cap_fflow\"=>\"DX Coil Cap-FF\", \"cool_eir_ft\"=>\"PSZ-AC DX Coil EIR-FT\", \"cool_eir_fflow\"=>\"Split DX Coil EIR-FF\", \"cool_plf_fplr\"=>\"HPACCOOLPLFFPLR\", \"notes\"=>nil}\n{\"template\"=>\"90.1-2010\", \"cooling_type\"=>\"AirCooled\", \"heating_type\"=>\"Electric Resistance or None\", \"subcategory\"=>\"Single Package\", \"minimum_capacity\"=>0.0, \"maximum_capacity\"=>64999.0, \"start_date\"=>\"1919-09-09T00:00:00+00:00\", \"end_date\"=>\"2999-09-09T00:00:00+00:00\", \"minimum_seasonal_energy_efficiency_ratio\"=>13.0, \"minimum_energy_efficiency_ratio\"=>nil, \"minimum_integrated_part_load_value\"=>nil, \"minimum_integrated_energy_efficiency_ratio\"=>nil, \"ptac_eer_coefficient_1\"=>nil, \"ptac_eer_coefficient_2\"=>nil, \"minimum_scop\"=>nil, \"cool_cap_ft\"=>\"PSZ-Fine Storage DX Coil Cap-FT\", \"cool_cap_fflow\"=>\"DX Coil Cap-FF\", \"cool_eir_ft\"=>\"PSZ-AC DX Coil EIR-FT\", \"cool_eir_fflow\"=>\"Split DX Coil EIR-FF\", \"cool_plf_fplr\"=>\"HPACCOOLPLFFPLR\", \"notes\"=>nil}",
               "[openstudio.standards.Model] Find object search criteria returned 2 results, the first one will be returned. Called from :/ruby/2.7.0/gems/openstudio-standards-0.2.16/lib/openstudio-standards/standards/Standards.CoilCoolingDXSingleSpeed.rb:61:in `coil_cooling_dx_single_speed_standard_minimum_cop'. \n Search criteria: \n {\"template\"=>\"90.1-2010\", \"cooling_type\"=>\"AirCooled\", \"subcategory\"=>\"Single Package\"}, capacity = 30251.232907680052 \n  All results: \n {\"template\"=>\"90.1-2010\", \"cooling_type\"=>\"AirCooled\", \"heating_type\"=>\"All Other\", \"subcategory\"=>\"Single Package\", \"minimum_capacity\"=>0.0, \"maximum_capacity\"=>64999.0, \"start_date\"=>\"1919-09-09T00:00:00+00:00\", \"end_date\"=>\"2999-09-09T00:00:00+00:00\", \"minimum_seasonal_energy_efficiency_ratio\"=>13.0, \"minimum_energy_efficiency_ratio\"=>nil, \"minimum_integrated_part_load_value\"=>nil, \"minimum_integrated_energy_efficiency_ratio\"=>nil, \"ptac_eer_coefficient_1\"=>nil, \"ptac_eer_coefficient_2\"=>nil, \"minimum_scop\"=>nil, \"cool_cap_ft\"=>\"PSZ-Fine Storage DX Coil Cap-FT\", \"cool_cap_fflow\"=>\"DX Coil Cap-FF\", \"cool_eir_ft\"=>\"PSZ-AC DX Coil EIR-FT\", \"cool_eir_fflow\"=>\"Split DX Coil EIR-FF\", \"cool_plf_fplr\"=>\"HPACCOOLPLFFPLR\", \"notes\"=>nil}\n{\"template\"=>\"90.1-2010\", \"cooling_type\"=>\"AirCooled\", \"heating_type\"=>\"Electric Resistance or None\", \"subcategory\"=>\"Single Package\", \"minimum_capacity\"=>0.0, \"maximum_capacity\"=>64999.0, \"start_date\"=>\"1919-09-09T00:00:00+00:00\", \"end_date\"=>\"2999-09-09T00:00:00+00:00\", \"minimum_seasonal_energy_efficiency_ratio\"=>13.0, \"minimum_energy_efficiency_ratio\"=>nil, \"minimum_integrated_part_load_value\"=>nil, \"minimum_integrated_energy_efficiency_ratio\"=>nil, \"ptac_eer_coefficient_1\"=>nil, \"ptac_eer_coefficient_2\"=>nil, \"minimum_scop\"=>nil, \"cool_cap_ft\"=>\"PSZ-Fine Storage DX Coil Cap-FT\", \"cool_cap_fflow\"=>\"DX Coil Cap-FF\", \"cool_eir_ft\"=>\"PSZ-AC DX Coil EIR-FT\", \"cool_eir_fflow\"=>\"Split DX Coil EIR-FF\", \"cool_plf_fplr\"=>\"HPACCOOLPLFFPLR\", \"notes\"=>nil}",
               "[openstudio.standards.Model] Find object search criteria returned 2 results, the first one will be returned. Called from :/ruby/2.7.0/gems/openstudio-standards-0.2.16/lib/openstudio-standards/standards/Standards.CoilCoolingDXSingleSpeed.rb:191:in `coil_cooling_dx_single_speed_apply_efficiency_and_curves'. \n Search criteria: \n {\"template\"=>\"90.1-2010\", \"cooling_type\"=>\"AirCooled\", \"subcategory\"=>\"Single Package\"}, capacity = 31206.68897548933 \n  All results: \n {\"template\"=>\"90.1-2010\", \"cooling_type\"=>\"AirCooled\", \"heating_type\"=>\"All Other\", \"subcategory\"=>\"Single Package\", \"minimum_capacity\"=>0.0, \"maximum_capacity\"=>64999.0, \"start_date\"=>\"1919-09-09T00:00:00+00:00\", \"end_date\"=>\"2999-09-09T00:00:00+00:00\", \"minimum_seasonal_energy_efficiency_ratio\"=>13.0, \"minimum_energy_efficiency_ratio\"=>nil, \"minimum_integrated_part_load_value\"=>nil, \"minimum_integrated_energy_efficiency_ratio\"=>nil, \"ptac_eer_coefficient_1\"=>nil, \"ptac_eer_coefficient_2\"=>nil, \"minimum_scop\"=>nil, \"cool_cap_ft\"=>\"PSZ-Fine Storage DX Coil Cap-FT\", \"cool_cap_fflow\"=>\"DX Coil Cap-FF\", \"cool_eir_ft\"=>\"PSZ-AC DX Coil EIR-FT\", \"cool_eir_fflow\"=>\"Split DX Coil EIR-FF\", \"cool_plf_fplr\"=>\"HPACCOOLPLFFPLR\", \"notes\"=>nil}\n{\"template\"=>\"90.1-2010\", \"cooling_type\"=>\"AirCooled\", \"heating_type\"=>\"Electric Resistance or None\", \"subcategory\"=>\"Single Package\", \"minimum_capacity\"=>0.0, \"maximum_capacity\"=>64999.0, \"start_date\"=>\"1919-09-09T00:00:00+00:00\", \"end_date\"=>\"2999-09-09T00:00:00+00:00\", \"minimum_seasonal_energy_efficiency_ratio\"=>13.0, \"minimum_energy_efficiency_ratio\"=>nil, \"minimum_integrated_part_load_value\"=>nil, \"minimum_integrated_energy_efficiency_ratio\"=>nil, \"ptac_eer_coefficient_1\"=>nil, \"ptac_eer_coefficient_2\"=>nil, \"minimum_scop\"=>nil, \"cool_cap_ft\"=>\"PSZ-Fine Storage DX Coil Cap-FT\", \"cool_cap_fflow\"=>\"DX Coil Cap-FF\", \"cool_eir_ft\"=>\"PSZ-AC DX Coil EIR-FT\", \"cool_eir_fflow\"=>\"Split DX Coil EIR-FF\", \"cool_plf_fplr\"=>\"HPACCOOLPLFFPLR\", \"notes\"=>nil}",
               "[openstudio.standards.Model] Find object search criteria returned 2 results, the first one will be returned. Called from :/ruby/2.7.0/gems/openstudio-standards-0.2.16/lib/openstudio-standards/standards/Standards.CoilCoolingDXSingleSpeed.rb:61:in `coil_cooling_dx_single_speed_standard_minimum_cop'. \n Search criteria: \n {\"template\"=>\"90.1-2010\", \"cooling_type\"=>\"AirCooled\", \"subcategory\"=>\"Single Package\"}, capacity = 31206.68897548933 \n  All results: \n {\"template\"=>\"90.1-2010\", \"cooling_type\"=>\"AirCooled\", \"heating_type\"=>\"All Other\", \"subcategory\"=>\"Single Package\", \"minimum_capacity\"=>0.0, \"maximum_capacity\"=>64999.0, \"start_date\"=>\"1919-09-09T00:00:00+00:00\", \"end_date\"=>\"2999-09-09T00:00:00+00:00\", \"minimum_seasonal_energy_efficiency_ratio\"=>13.0, \"minimum_energy_efficiency_ratio\"=>nil, \"minimum_integrated_part_load_value\"=>nil, \"minimum_integrated_energy_efficiency_ratio\"=>nil, \"ptac_eer_coefficient_1\"=>nil, \"ptac_eer_coefficient_2\"=>nil, \"minimum_scop\"=>nil, \"cool_cap_ft\"=>\"PSZ-Fine Storage DX Coil Cap-FT\", \"cool_cap_fflow\"=>\"DX Coil Cap-FF\", \"cool_eir_ft\"=>\"PSZ-AC DX Coil EIR-FT\", \"cool_eir_fflow\"=>\"Split DX Coil EIR-FF\", \"cool_plf_fplr\"=>\"HPACCOOLPLFFPLR\", \"notes\"=>nil}\n{\"template\"=>\"90.1-2010\", \"cooling_type\"=>\"AirCooled\", \"heating_type\"=>\"Electric Resistance or None\", \"subcategory\"=>\"Single Package\", \"minimum_capacity\"=>0.0, \"maximum_capacity\"=>64999.0, \"start_date\"=>\"1919-09-09T00:00:00+00:00\", \"end_date\"=>\"2999-09-09T00:00:00+00:00\", \"minimum_seasonal_energy_efficiency_ratio\"=>13.0, \"minimum_energy_efficiency_ratio\"=>nil, \"minimum_integrated_part_load_value\"=>nil, \"minimum_integrated_energy_efficiency_ratio\"=>nil, \"ptac_eer_coefficient_1\"=>nil, \"ptac_eer_coefficient_2\"=>nil, \"minimum_scop\"=>nil, \"cool_cap_ft\"=>\"PSZ-Fine Storage DX Coil Cap-FT\", \"cool_cap_fflow\"=>\"DX Coil Cap-FF\", \"cool_eir_ft\"=>\"PSZ-AC DX Coil EIR-FT\", \"cool_eir_fflow\"=>\"Split DX Coil EIR-FF\", \"cool_plf_fplr\"=>\"HPACCOOLPLFFPLR\", \"notes\"=>nil}"
            ]
         }
      }
   ],
   "updated_at" : "20221129T053645Z",
   "weather_file" : "USA_CA_Red.Bluff.Muni.AP.725910_TMY.epw"
}