Program Version,EnergyPlus, Version 22.1.0-ed759b17ee, YMD=2022.11.28 22:36
! This file shows details about the branches, nodes, and other
! elements of the flow connections.
! This file is intended for use in "debugging" potential problems
! that may also be detected by the program, but may be more easily
! identified by "eye".
! This file is also intended to support software which draws a
! schematic diagram of the HVAC system.
! ===============================================================
! #Nodes,<Number of Unique Nodes>
 #Nodes,89
! <Node>,<NodeNumber>,<Node Name>,<Node Fluid Type>,<# Times Node Referenced After Definition>
 Node,1,NODE 51,Air,4
 Node,2,NODE 55,Air,2
 Node,3,NODE 11,Air,4
 Node,4,NODE 15,Air,2
 Node,5,NODE 21,Air,4
 Node,6,NODE 25,Air,2
 Node,7,NODE 31,Air,4
 Node,8,NODE 35,Air,2
 Node,9,NODE 41,Air,4
 Node,10,NODE 45,Air,2
 Node,11,NODE 48,Air,6
 Node,12,NODE 49,Air,3
 Node,13,NODE 8,Air,6
 Node,14,NODE 9,Air,3
 Node,15,NODE 18,Air,6
 Node,16,NODE 19,Air,3
 Node,17,NODE 28,Air,6
 Node,18,NODE 29,Air,3
 Node,19,NODE 38,Air,6
 Node,20,NODE 39,Air,3
 Node,21,NODE 47,Air,3
 Node,22,NODE 54,Air,7
 Node,23,NODE 7,Air,3
 Node,24,NODE 14,Air,7
 Node,25,NODE 17,Air,3
 Node,26,NODE 24,Air,7
 Node,27,NODE 27,Air,3
 Node,28,NODE 34,Air,7
 Node,29,NODE 37,Air,3
 Node,30,NODE 44,Air,7
 Node,31,NODE 57,Water,2
 Node,32,NODE 63,Water,1
 Node,33,NODE 59,Water,1
 Node,34,NODE 64,Water,1
 Node,35,NODE 65,Water,1
 Node,36,NODE 66,Water,1
 Node,37,NODE 68,Water,1
 Node,38,NODE 58,Water,4
 Node,39,NODE 60,Water,2
 Node,40,MAIN SERVICE WATER LOOP DEMAND INLET PIPE NODE,Water,1
 Node,41,NODE 62,Water,1
 Node,42,NODE 67,Water,1
 Node,43,NODE 70,Water,1
 Node,44,NODE 71,Water,1
 Node,45,MAIN SERVICE WATER LOOP DEMAND BYPASS PIPE INLET NODE,Water,1
 Node,46,MAIN SERVICE WATER LOOP DEMAND BYPASS PIPE OUTLET NODE,Water,1
 Node,47,NODE 69,Water,1
 Node,48,NODE 61,Water,2
 Node,49,NODE 2,Air,1
 Node,50,NODE 3,Air,1
 Node,51,NODE 4,Air,1
 Node,52,NODE 5,Air,1
 Node,53,NODE 6,Air,1
 Node,54,NODE 50,Air,2
 Node,55,NODE 10,Air,2
 Node,56,NODE 20,Air,2
 Node,57,NODE 30,Air,2
 Node,58,NODE 40,Air,2
 Node,59,NODE 52,Air,2
 Node,60,NODE 12,Air,2
 Node,61,NODE 22,Air,2
 Node,62,NODE 32,Air,2
 Node,63,NODE 42,Air,2
 Node,64,MODEL OUTDOOR AIR NODE,Air,0
 Node,65,CORE_ZN ZN PSZ-AC-1 UNITARY HP FAN - COOLING COIL NODE,Air,2
 Node,66,PERIMETER_ZN_1 ZN PSZ-AC-2 UNITARY HP FAN - COOLING COIL NODE,Air,2
 Node,67,PERIMETER_ZN_2 ZN PSZ-AC-3 UNITARY HP FAN - COOLING COIL NODE,Air,2
 Node,68,PERIMETER_ZN_3 ZN PSZ-AC-4 UNITARY HP FAN - COOLING COIL NODE,Air,2
 Node,69,PERIMETER_ZN_4 ZN PSZ-AC-5 UNITARY HP FAN - COOLING COIL NODE,Air,2
 Node,70,NODE 56,Air,1
 Node,71,NODE 16,Air,1
 Node,72,NODE 26,Air,1
 Node,73,NODE 36,Air,1
 Node,74,NODE 46,Air,1
 Node,75,NODE 53,Air,1
 Node,76,NODE 13,Air,1
 Node,77,NODE 23,Air,1
 Node,78,NODE 33,Air,1
 Node,79,NODE 43,Air,1
 Node,80,CORE_ZN ZN PSZ-AC-1 UNITARY HP COOLING COIL - HEATING COIL NODE,Air,1
 Node,81,PERIMETER_ZN_1 ZN PSZ-AC-2 UNITARY HP COOLING COIL - HEATING COIL NODE,Air,1
 Node,82,PERIMETER_ZN_2 ZN PSZ-AC-3 UNITARY HP COOLING COIL - HEATING COIL NODE,Air,1
 Node,83,PERIMETER_ZN_3 ZN PSZ-AC-4 UNITARY HP COOLING COIL - HEATING COIL NODE,Air,1
 Node,84,PERIMETER_ZN_4 ZN PSZ-AC-5 UNITARY HP COOLING COIL - HEATING COIL NODE,Air,1
 Node,85,CORE_ZN ZN PSZ-AC-1 UNITARY HP HEATING COIL - SUPPLEMENTAL COIL NODE,Air,1
 Node,86,PERIMETER_ZN_1 ZN PSZ-AC-2 UNITARY HP HEATING COIL - SUPPLEMENTAL COIL NODE,Air,1
 Node,87,PERIMETER_ZN_2 ZN PSZ-AC-3 UNITARY HP HEATING COIL - SUPPLEMENTAL COIL NODE,Air,1
 Node,88,PERIMETER_ZN_3 ZN PSZ-AC-4 UNITARY HP HEATING COIL - SUPPLEMENTAL COIL NODE,Air,1
 Node,89,PERIMETER_ZN_4 ZN PSZ-AC-5 UNITARY HP HEATING COIL - SUPPLEMENTAL COIL NODE,Air,1
! ===============================================================
! Suspicious nodes have 0 references.  It is normal for some nodes, however.
! Listing nodes with 0 references (culled from previous list):
! <Suspicious Node>,<NodeNumber>,<Node Name>,<Node Fluid Type>,<# Times Node Referenced After Definition>
 Suspicious Node,64,MODEL OUTDOOR AIR NODE,Air,0
! ===============================================================
! <#Branch Lists>,<Number of Branch Lists>
 #Branch Lists,7
! <Branch List>,<Branch List Count>,<Branch List Name>,<Loop Name>,<Loop Type>,<Number of Branches>
! <Branch>,<Branch Count>,<Branch Name>,<Loop Name>,<Loop Type>,<Branch Inlet Node Name>,<Branch Outlet Node Name>
 Branch List,1,CORE_ZN ZN PSZ-AC-1 SUPPLY BRANCHES,CORE_ZN ZN PSZ-AC-1,Air,1
   Branch,1,CORE_ZN ZN PSZ-AC-1 MAIN BRANCH,CORE_ZN ZN PSZ-AC-1,Air,NODE 47,NODE 48
 Branch List,2,PERIMETER_ZN_1 ZN PSZ-AC-2 SUPPLY BRANCHES,PERIMETER_ZN_1 ZN PSZ-AC-2,Air,1
   Branch,1,PERIMETER_ZN_1 ZN PSZ-AC-2 MAIN BRANCH,PERIMETER_ZN_1 ZN PSZ-AC-2,Air,NODE 7,NODE 8
 Branch List,3,PERIMETER_ZN_2 ZN PSZ-AC-3 SUPPLY BRANCHES,PERIMETER_ZN_2 ZN PSZ-AC-3,Air,1
   Branch,1,PERIMETER_ZN_2 ZN PSZ-AC-3 MAIN BRANCH,PERIMETER_ZN_2 ZN PSZ-AC-3,Air,NODE 17,NODE 18
 Branch List,4,PERIMETER_ZN_3 ZN PSZ-AC-4 SUPPLY BRANCHES,PERIMETER_ZN_3 ZN PSZ-AC-4,Air,1
   Branch,1,PERIMETER_ZN_3 ZN PSZ-AC-4 MAIN BRANCH,PERIMETER_ZN_3 ZN PSZ-AC-4,Air,NODE 27,NODE 28
 Branch List,5,PERIMETER_ZN_4 ZN PSZ-AC-5 SUPPLY BRANCHES,PERIMETER_ZN_4 ZN PSZ-AC-5,Air,1
   Branch,1,PERIMETER_ZN_4 ZN PSZ-AC-5 MAIN BRANCH,PERIMETER_ZN_4 ZN PSZ-AC-5,Air,NODE 37,NODE 38
 Branch List,6,MAIN SERVICE WATER LOOP SUPPLY BRANCHES,MAIN SERVICE WATER LOOP,Plant Supply,4
   Branch,1,MAIN SERVICE WATER LOOP SUPPLY INLET BRANCH,MAIN SERVICE WATER LOOP,Plant Supply,NODE 57,NODE 63
   Branch,2,MAIN SERVICE WATER LOOP SUPPLY BRANCH 1,MAIN SERVICE WATER LOOP,Plant Supply,NODE 59,NODE 64
   Branch,3,MAIN SERVICE WATER LOOP SUPPLY BRANCH 2,MAIN SERVICE WATER LOOP,Plant Supply,NODE 65,NODE 66
   Branch,4,MAIN SERVICE WATER LOOP SUPPLY OUTLET BRANCH,MAIN SERVICE WATER LOOP,Plant Supply,NODE 68,NODE 58
 Branch List,7,MAIN SERVICE WATER LOOP DEMAND BRANCHES,MAIN SERVICE WATER LOOP,Plant Demand,5
   Branch,1,MAIN SERVICE WATER LOOP DEMAND INLET BRANCH,MAIN SERVICE WATER LOOP,Plant Demand,NODE 60,MAIN SERVICE WATER LOOP DEMAND INLET PIPE NODE
   Branch,2,MAIN SERVICE WATER LOOP DEMAND BRANCH 1,MAIN SERVICE WATER LOOP,Plant Demand,NODE 62,NODE 67
   Branch,3,MAIN SERVICE WATER LOOP DEMAND BRANCH 2,MAIN SERVICE WATER LOOP,Plant Demand,NODE 70,NODE 71
   Branch,4,MAIN SERVICE WATER LOOP DEMAND BYPASS BRANCH,MAIN SERVICE WATER LOOP,Plant Demand,MAIN SERVICE WATER LOOP DEMAND BYPASS PIPE INLET NODE,MAIN SERVICE WATER LOOP DEMAND BYPASS PIPE OUTLET NODE
   Branch,5,MAIN SERVICE WATER LOOP DEMAND OUTLET BRANCH,MAIN SERVICE WATER LOOP,Plant Demand,NODE 69,NODE 61
! ===============================================================
! <#Supply Air Paths>,<Number of Supply Air Paths>
 #Supply Air Paths,5
! <Supply Air Path>,<Supply Air Path Count>,<Supply Air Path Name>,<AirLoopHVAC Name>
! <#Components on Supply Air Path>,<Number of Components>
! <Supply Air Path Component>,<Component Count>,<Component Type>,<Component Name>,<AirLoopHVAC Name>
! <#Outlet Nodes on Supply Air Path Component>,<Number of Nodes>
! <Supply Air Path Component Nodes>,<Node Count>,<Component Type>,<Component Name>,<Inlet Node Name>,<Outlet Node Name>,<AirLoopHVAC Name>
 Supply Air Path,1,CORE_ZN ZN PSZ-AC-1 NODE 49 SUPPLY PATH,CORE_ZN ZN PSZ-AC-1
   #Components on Supply Air Path,1
   Supply Air Path Component,1,AIRLOOPHVAC:ZONESPLITTER,AIR LOOP HVAC ZONE SPLITTER 5,CORE_ZN ZN PSZ-AC-1
     #Outlet Nodes on Supply Air Path Component,1
     Supply Air Path Component Nodes,1,AIRLOOPHVAC:ZONESPLITTER,AIR LOOP HVAC ZONE SPLITTER 5,NODE 49,NODE 56,CORE_ZN ZN PSZ-AC-1
! <#Nodes on Supply Air Path>,<Number of Nodes>
! <Supply Air Path Node>,<Node Type>,<Node Count>,<Node Name>,<AirLoopHVAC Name>
#Nodes on Supply Air Path,2
   Supply Air Path Node,Inlet Node,1,NODE 49,CORE_ZN ZN PSZ-AC-1
   Supply Air Path Node,Outlet Node,2,NODE 56,CORE_ZN ZN PSZ-AC-1
 Supply Air Path,2,PERIMETER_ZN_1 ZN PSZ-AC-2 NODE 9 SUPPLY PATH,PERIMETER_ZN_1 ZN PSZ-AC-2
   #Components on Supply Air Path,1
   Supply Air Path Component,1,AIRLOOPHVAC:ZONESPLITTER,AIR LOOP HVAC ZONE SPLITTER 1,PERIMETER_ZN_1 ZN PSZ-AC-2
     #Outlet Nodes on Supply Air Path Component,1
     Supply Air Path Component Nodes,1,AIRLOOPHVAC:ZONESPLITTER,AIR LOOP HVAC ZONE SPLITTER 1,NODE 9,NODE 16,PERIMETER_ZN_1 ZN PSZ-AC-2
! <#Nodes on Supply Air Path>,<Number of Nodes>
! <Supply Air Path Node>,<Node Type>,<Node Count>,<Node Name>,<AirLoopHVAC Name>
#Nodes on Supply Air Path,2
   Supply Air Path Node,Inlet Node,1,NODE 9,PERIMETER_ZN_1 ZN PSZ-AC-2
   Supply Air Path Node,Outlet Node,2,NODE 16,PERIMETER_ZN_1 ZN PSZ-AC-2
 Supply Air Path,3,PERIMETER_ZN_2 ZN PSZ-AC-3 NODE 19 SUPPLY PATH,PERIMETER_ZN_2 ZN PSZ-AC-3
   #Components on Supply Air Path,1
   Supply Air Path Component,1,AIRLOOPHVAC:ZONESPLITTER,AIR LOOP HVAC ZONE SPLITTER 2,PERIMETER_ZN_2 ZN PSZ-AC-3
     #Outlet Nodes on Supply Air Path Component,1
     Supply Air Path Component Nodes,1,AIRLOOPHVAC:ZONESPLITTER,AIR LOOP HVAC ZONE SPLITTER 2,NODE 19,NODE 26,PERIMETER_ZN_2 ZN PSZ-AC-3
! <#Nodes on Supply Air Path>,<Number of Nodes>
! <Supply Air Path Node>,<Node Type>,<Node Count>,<Node Name>,<AirLoopHVAC Name>
#Nodes on Supply Air Path,2
   Supply Air Path Node,Inlet Node,1,NODE 19,PERIMETER_ZN_2 ZN PSZ-AC-3
   Supply Air Path Node,Outlet Node,2,NODE 26,PERIMETER_ZN_2 ZN PSZ-AC-3
 Supply Air Path,4,PERIMETER_ZN_3 ZN PSZ-AC-4 NODE 29 SUPPLY PATH,PERIMETER_ZN_3 ZN PSZ-AC-4
   #Components on Supply Air Path,1
   Supply Air Path Component,1,AIRLOOPHVAC:ZONESPLITTER,AIR LOOP HVAC ZONE SPLITTER 3,PERIMETER_ZN_3 ZN PSZ-AC-4
     #Outlet Nodes on Supply Air Path Component,1
     Supply Air Path Component Nodes,1,AIRLOOPHVAC:ZONESPLITTER,AIR LOOP HVAC ZONE SPLITTER 3,NODE 29,NODE 36,PERIMETER_ZN_3 ZN PSZ-AC-4
! <#Nodes on Supply Air Path>,<Number of Nodes>
! <Supply Air Path Node>,<Node Type>,<Node Count>,<Node Name>,<AirLoopHVAC Name>
#Nodes on Supply Air Path,2
   Supply Air Path Node,Inlet Node,1,NODE 29,PERIMETER_ZN_3 ZN PSZ-AC-4
   Supply Air Path Node,Outlet Node,2,NODE 36,PERIMETER_ZN_3 ZN PSZ-AC-4
 Supply Air Path,5,PERIMETER_ZN_4 ZN PSZ-AC-5 NODE 39 SUPPLY PATH,PERIMETER_ZN_4 ZN PSZ-AC-5
   #Components on Supply Air Path,1
   Supply Air Path Component,1,AIRLOOPHVAC:ZONESPLITTER,AIR LOOP HVAC ZONE SPLITTER 4,PERIMETER_ZN_4 ZN PSZ-AC-5
     #Outlet Nodes on Supply Air Path Component,1
     Supply Air Path Component Nodes,1,AIRLOOPHVAC:ZONESPLITTER,AIR LOOP HVAC ZONE SPLITTER 4,NODE 39,NODE 46,PERIMETER_ZN_4 ZN PSZ-AC-5
! <#Nodes on Supply Air Path>,<Number of Nodes>
! <Supply Air Path Node>,<Node Type>,<Node Count>,<Node Name>,<AirLoopHVAC Name>
#Nodes on Supply Air Path,2
   Supply Air Path Node,Inlet Node,1,NODE 39,PERIMETER_ZN_4 ZN PSZ-AC-5
   Supply Air Path Node,Outlet Node,2,NODE 46,PERIMETER_ZN_4 ZN PSZ-AC-5
! ===============================================================
! <#Return Air Paths>,<Number of Return Air Paths>
 #Return Air Paths,5
! <Return Air Path>,<Return Air Path Count>,<Return Air Path Name>,<AirLoopHVAC Name>
! <#Components on Return Air Path>,<Number of Components>
! <Return Air Path Component>,<Component Count>,<Component Type>,<Component Name>,<AirLoopHVAC Name>
! <#Inlet Nodes on Return Air Path Component>,<Number of Nodes>
! <Return Air Path Component Nodes>,<Node Count>,<Component Type>,<Component Name>,<Inlet Node Name>,<Outlet Node Name>,<AirLoopHVAC Name>
 Return Air Path,1,CORE_ZN ZN PSZ-AC-1 RETURN PATH,CORE_ZN ZN PSZ-AC-1
   #Components on Return Air Path,1
   Return Air Path Component,1,AIRLOOPHVAC:ZONEMIXER,AIR LOOP HVAC ZONE MIXER 5,CORE_ZN ZN PSZ-AC-1
     #Inlet Nodes on Return Air Path Component,1
     Return Air Path Component Nodes,1,AIRLOOPHVAC:ZONEMIXER,AIR LOOP HVAC ZONE MIXER 5,NODE 55,NODE 50,CORE_ZN ZN PSZ-AC-1
! <#Nodes on Return Air Path>,<Number of Nodes>
! <Return Air Path Node>,<Node Type>,<Node Count>,<Node Name>,<AirLoopHVAC Name>
   #Nodes on Return Air Path,2
   Return Air Path Node,Outlet Node,1,NODE 50,CORE_ZN ZN PSZ-AC-1
   Return Air Path Node,Inlet Node,2,NODE 55,CORE_ZN ZN PSZ-AC-1
 Return Air Path,2,PERIMETER_ZN_1 ZN PSZ-AC-2 RETURN PATH,PERIMETER_ZN_1 ZN PSZ-AC-2
   #Components on Return Air Path,1
   Return Air Path Component,1,AIRLOOPHVAC:ZONEMIXER,AIR LOOP HVAC ZONE MIXER 1,PERIMETER_ZN_1 ZN PSZ-AC-2
     #Inlet Nodes on Return Air Path Component,1
     Return Air Path Component Nodes,1,AIRLOOPHVAC:ZONEMIXER,AIR LOOP HVAC ZONE MIXER 1,NODE 15,NODE 10,PERIMETER_ZN_1 ZN PSZ-AC-2
! <#Nodes on Return Air Path>,<Number of Nodes>
! <Return Air Path Node>,<Node Type>,<Node Count>,<Node Name>,<AirLoopHVAC Name>
   #Nodes on Return Air Path,2
   Return Air Path Node,Outlet Node,1,NODE 10,PERIMETER_ZN_1 ZN PSZ-AC-2
   Return Air Path Node,Inlet Node,2,NODE 15,PERIMETER_ZN_1 ZN PSZ-AC-2
 Return Air Path,3,PERIMETER_ZN_2 ZN PSZ-AC-3 RETURN PATH,PERIMETER_ZN_2 ZN PSZ-AC-3
   #Components on Return Air Path,1
   Return Air Path Component,1,AIRLOOPHVAC:ZONEMIXER,AIR LOOP HVAC ZONE MIXER 2,PERIMETER_ZN_2 ZN PSZ-AC-3
     #Inlet Nodes on Return Air Path Component,1
     Return Air Path Component Nodes,1,AIRLOOPHVAC:ZONEMIXER,AIR LOOP HVAC ZONE MIXER 2,NODE 25,NODE 20,PERIMETER_ZN_2 ZN PSZ-AC-3
! <#Nodes on Return Air Path>,<Number of Nodes>
! <Return Air Path Node>,<Node Type>,<Node Count>,<Node Name>,<AirLoopHVAC Name>
   #Nodes on Return Air Path,2
   Return Air Path Node,Outlet Node,1,NODE 20,PERIMETER_ZN_2 ZN PSZ-AC-3
   Return Air Path Node,Inlet Node,2,NODE 25,PERIMETER_ZN_2 ZN PSZ-AC-3
 Return Air Path,4,PERIMETER_ZN_3 ZN PSZ-AC-4 RETURN PATH,PERIMETER_ZN_3 ZN PSZ-AC-4
   #Components on Return Air Path,1
   Return Air Path Component,1,AIRLOOPHVAC:ZONEMIXER,AIR LOOP HVAC ZONE MIXER 3,PERIMETER_ZN_3 ZN PSZ-AC-4
     #Inlet Nodes on Return Air Path Component,1
     Return Air Path Component Nodes,1,AIRLOOPHVAC:ZONEMIXER,AIR LOOP HVAC ZONE MIXER 3,NODE 35,NODE 30,PERIMETER_ZN_3 ZN PSZ-AC-4
! <#Nodes on Return Air Path>,<Number of Nodes>
! <Return Air Path Node>,<Node Type>,<Node Count>,<Node Name>,<AirLoopHVAC Name>
   #Nodes on Return Air Path,2
   Return Air Path Node,Outlet Node,1,NODE 30,PERIMETER_ZN_3 ZN PSZ-AC-4
   Return Air Path Node,Inlet Node,2,NODE 35,PERIMETER_ZN_3 ZN PSZ-AC-4
 Return Air Path,5,PERIMETER_ZN_4 ZN PSZ-AC-5 RETURN PATH,PERIMETER_ZN_4 ZN PSZ-AC-5
   #Components on Return Air Path,1
   Return Air Path Component,1,AIRLOOPHVAC:ZONEMIXER,AIR LOOP HVAC ZONE MIXER 4,PERIMETER_ZN_4 ZN PSZ-AC-5
     #Inlet Nodes on Return Air Path Component,1
     Return Air Path Component Nodes,1,AIRLOOPHVAC:ZONEMIXER,AIR LOOP HVAC ZONE MIXER 4,NODE 45,NODE 40,PERIMETER_ZN_4 ZN PSZ-AC-5
! <#Nodes on Return Air Path>,<Number of Nodes>
! <Return Air Path Node>,<Node Type>,<Node Count>,<Node Name>,<AirLoopHVAC Name>
   #Nodes on Return Air Path,2
   Return Air Path Node,Outlet Node,1,NODE 40,PERIMETER_ZN_4 ZN PSZ-AC-5
   Return Air Path Node,Inlet Node,2,NODE 45,PERIMETER_ZN_4 ZN PSZ-AC-5
! ===============================================================
! #Outdoor Air Nodes,<Number of Outdoor Air Nodes>
 #Outdoor Air Nodes,6
! <Outdoor Air Node>,<NodeNumber>,<Node Name>
 Outdoor Air Node,59,NODE 52
 Outdoor Air Node,60,NODE 12
 Outdoor Air Node,61,NODE 22
 Outdoor Air Node,62,NODE 32
 Outdoor Air Node,63,NODE 42
 Outdoor Air Node,64,MODEL OUTDOOR AIR NODE
! ===============================================================
! <#Component Sets>,<Number of Component Sets>
 #Component Sets,49
! <Component Set>,<Component Set Count>,<Parent Object Type>,<Parent Object Name>,<Component Type>,<Component Name>,<Inlet Node ID>,<Outlet Node ID>,<Description>
 Component Set,1,BRANCH,CORE_ZN ZN PSZ-AC-1 MAIN BRANCH,AIRLOOPHVAC:OUTDOORAIRSYSTEM,CORE_ZN ZN PSZ-AC-1 OA SYSTEM,NODE 47,NODE 54,Air Nodes
 Component Set,2,BRANCH,CORE_ZN ZN PSZ-AC-1 MAIN BRANCH,AIRLOOPHVAC:UNITARYSYSTEM,CORE_ZN ZN PSZ-AC-1 UNITARY HP,NODE 54,NODE 48,Air Nodes
 Component Set,3,BRANCH,PERIMETER_ZN_1 ZN PSZ-AC-2 MAIN BRANCH,AIRLOOPHVAC:OUTDOORAIRSYSTEM,PERIMETER_ZN_1 ZN PSZ-AC-2 OA SYSTEM,NODE 7,NODE 14,Air Nodes
 Component Set,4,BRANCH,PERIMETER_ZN_1 ZN PSZ-AC-2 MAIN BRANCH,AIRLOOPHVAC:UNITARYSYSTEM,PERIMETER_ZN_1 ZN PSZ-AC-2 UNITARY HP,NODE 14,NODE 8,Air Nodes
 Component Set,5,BRANCH,PERIMETER_ZN_2 ZN PSZ-AC-3 MAIN BRANCH,AIRLOOPHVAC:OUTDOORAIRSYSTEM,PERIMETER_ZN_2 ZN PSZ-AC-3 OA SYSTEM,NODE 17,NODE 24,Air Nodes
 Component Set,6,BRANCH,PERIMETER_ZN_2 ZN PSZ-AC-3 MAIN BRANCH,AIRLOOPHVAC:UNITARYSYSTEM,PERIMETER_ZN_2 ZN PSZ-AC-3 UNITARY HP,NODE 24,NODE 18,Air Nodes
 Component Set,7,BRANCH,PERIMETER_ZN_3 ZN PSZ-AC-4 MAIN BRANCH,AIRLOOPHVAC:OUTDOORAIRSYSTEM,PERIMETER_ZN_3 ZN PSZ-AC-4 OA SYSTEM,NODE 27,NODE 34,Air Nodes
 Component Set,8,BRANCH,PERIMETER_ZN_3 ZN PSZ-AC-4 MAIN BRANCH,AIRLOOPHVAC:UNITARYSYSTEM,PERIMETER_ZN_3 ZN PSZ-AC-4 UNITARY HP,NODE 34,NODE 28,Air Nodes
 Component Set,9,BRANCH,PERIMETER_ZN_4 ZN PSZ-AC-5 MAIN BRANCH,AIRLOOPHVAC:OUTDOORAIRSYSTEM,PERIMETER_ZN_4 ZN PSZ-AC-5 OA SYSTEM,NODE 37,NODE 44,Air Nodes
 Component Set,10,BRANCH,PERIMETER_ZN_4 ZN PSZ-AC-5 MAIN BRANCH,AIRLOOPHVAC:UNITARYSYSTEM,PERIMETER_ZN_4 ZN PSZ-AC-5 UNITARY HP,NODE 44,NODE 38,Air Nodes
 Component Set,11,BRANCH,MAIN SERVICE WATER LOOP SUPPLY INLET BRANCH,PUMP:VARIABLESPEED,MAIN SERVICE WATER LOOP WATER MAINS PRESSURE DRIVEN,NODE 57,NODE 63,Water Nodes
 Component Set,12,BRANCH,MAIN SERVICE WATER LOOP SUPPLY BRANCH 1,WATERHEATER:MIXED,40GAL ELECTRICITY WATER HEATER - 40KBTU/HR,NODE 59,NODE 64,Use Side Water Nodes
 Component Set,13,BRANCH,MAIN SERVICE WATER LOOP SUPPLY BRANCH 2,PIPE:ADIABATIC,PIPE ADIABATIC 1,NODE 65,NODE 66,Pipe Nodes
 Component Set,14,BRANCH,MAIN SERVICE WATER LOOP SUPPLY OUTLET BRANCH,PIPE:ADIABATIC,PIPE ADIABATIC 3,NODE 68,NODE 58,Pipe Nodes
 Component Set,15,BRANCH,MAIN SERVICE WATER LOOP DEMAND INLET BRANCH,PIPE:ADIABATIC,MAIN SERVICE WATER LOOP DEMAND INLET PIPE,NODE 60,MAIN SERVICE WATER LOOP DEMAND INLET PIPE NODE,Pipe Nodes
 Component Set,16,BRANCH,MAIN SERVICE WATER LOOP DEMAND BRANCH 1,PIPE:ADIABATIC,PIPE ADIABATIC 2,NODE 62,NODE 67,Pipe Nodes
 Component Set,17,BRANCH,MAIN SERVICE WATER LOOP DEMAND BRANCH 2,WATERUSE:CONNECTIONS,MAIN WUC 0.06GPM AT 140F,NODE 70,NODE 71,DHW Nodes
 Component Set,18,BRANCH,MAIN SERVICE WATER LOOP DEMAND BYPASS BRANCH,PIPE:ADIABATIC,MAIN SERVICE WATER LOOP DEMAND BYPASS PIPE,MAIN SERVICE WATER LOOP DEMAND BYPASS PIPE INLET NODE,MAIN SERVICE WATER LOOP DEMAND BYPASS PIPE OUTLET NODE,Pipe Nodes
 Component Set,19,BRANCH,MAIN SERVICE WATER LOOP DEMAND OUTLET BRANCH,PIPE:ADIABATIC,PIPE ADIABATIC 4,NODE 69,NODE 61,Pipe Nodes
 Component Set,20,ZONEHVAC:AIRDISTRIBUTIONUNIT,ADU CORE_ZN ZN PSZ-AC-1 DIFFUSER,AIRTERMINAL:SINGLEDUCT:CONSTANTVOLUME:NOREHEAT,CORE_ZN ZN PSZ-AC-1 DIFFUSER,NODE 56,NODE 51,Air Nodes
 Component Set,21,ZONEHVAC:AIRDISTRIBUTIONUNIT,ADU PERIMETER_ZN_1 ZN PSZ-AC-2 DIFFUSER,AIRTERMINAL:SINGLEDUCT:CONSTANTVOLUME:NOREHEAT,PERIMETER_ZN_1 ZN PSZ-AC-2 DIFFUSER,NODE 16,NODE 11,Air Nodes
 Component Set,22,ZONEHVAC:AIRDISTRIBUTIONUNIT,ADU PERIMETER_ZN_2 ZN PSZ-AC-3 DIFFUSER,AIRTERMINAL:SINGLEDUCT:CONSTANTVOLUME:NOREHEAT,PERIMETER_ZN_2 ZN PSZ-AC-3 DIFFUSER,NODE 26,NODE 21,Air Nodes
 Component Set,23,ZONEHVAC:AIRDISTRIBUTIONUNIT,ADU PERIMETER_ZN_3 ZN PSZ-AC-4 DIFFUSER,AIRTERMINAL:SINGLEDUCT:CONSTANTVOLUME:NOREHEAT,PERIMETER_ZN_3 ZN PSZ-AC-4 DIFFUSER,NODE 36,NODE 31,Air Nodes
 Component Set,24,ZONEHVAC:AIRDISTRIBUTIONUNIT,ADU PERIMETER_ZN_4 ZN PSZ-AC-5 DIFFUSER,AIRTERMINAL:SINGLEDUCT:CONSTANTVOLUME:NOREHEAT,PERIMETER_ZN_4 ZN PSZ-AC-5 DIFFUSER,NODE 46,NODE 41,Air Nodes
 Component Set,25,AIRLOOPHVAC:OUTDOORAIRSYSTEM,CORE_ZN ZN PSZ-AC-1 OA SYSTEM,OUTDOORAIR:MIXER,CORE_ZN ZN PSZ-AC-1 OA SYSTEM OUTDOOR AIR MIXER,NODE 52,NODE 54,Air Nodes
 Component Set,26,AIRLOOPHVAC:OUTDOORAIRSYSTEM,PERIMETER_ZN_1 ZN PSZ-AC-2 OA SYSTEM,OUTDOORAIR:MIXER,PERIMETER_ZN_1 ZN PSZ-AC-2 OA SYSTEM OUTDOOR AIR MIXER,NODE 12,NODE 14,Air Nodes
 Component Set,27,AIRLOOPHVAC:OUTDOORAIRSYSTEM,PERIMETER_ZN_2 ZN PSZ-AC-3 OA SYSTEM,OUTDOORAIR:MIXER,PERIMETER_ZN_2 ZN PSZ-AC-3 OA SYSTEM OUTDOOR AIR MIXER,NODE 22,NODE 24,Air Nodes
 Component Set,28,AIRLOOPHVAC:OUTDOORAIRSYSTEM,PERIMETER_ZN_3 ZN PSZ-AC-4 OA SYSTEM,OUTDOORAIR:MIXER,PERIMETER_ZN_3 ZN PSZ-AC-4 OA SYSTEM OUTDOOR AIR MIXER,NODE 32,NODE 34,Air Nodes
 Component Set,29,AIRLOOPHVAC:OUTDOORAIRSYSTEM,PERIMETER_ZN_4 ZN PSZ-AC-5 OA SYSTEM,OUTDOORAIR:MIXER,PERIMETER_ZN_4 ZN PSZ-AC-5 OA SYSTEM OUTDOOR AIR MIXER,NODE 42,NODE 44,Air Nodes
 Component Set,30,AIRLOOPHVAC:UNITARYSYSTEM,CORE_ZN ZN PSZ-AC-1 UNITARY HP,COIL:COOLING:DX:SINGLESPEED,CORE_ZN ZN PSZ-AC-1 1SPD DX HP CLG COIL,CORE_ZN ZN PSZ-AC-1 UNITARY HP FAN - COOLING COIL NODE,CORE_ZN ZN PSZ-AC-1 UNITARY HP COOLING COIL - HEATING COIL NODE,Air Nodes
 Component Set,31,AIRLOOPHVAC:UNITARYSYSTEM,PERIMETER_ZN_1 ZN PSZ-AC-2 UNITARY HP,COIL:COOLING:DX:SINGLESPEED,PERIMETER_ZN_1 ZN PSZ-AC-2 1SPD DX HP CLG COIL,PERIMETER_ZN_1 ZN PSZ-AC-2 UNITARY HP FAN - COOLING COIL NODE,PERIMETER_ZN_1 ZN PSZ-AC-2 UNITARY HP COOLING COIL - HEATING COIL NODE,Air Nodes
 Component Set,32,AIRLOOPHVAC:UNITARYSYSTEM,PERIMETER_ZN_2 ZN PSZ-AC-3 UNITARY HP,COIL:COOLING:DX:SINGLESPEED,PERIMETER_ZN_2 ZN PSZ-AC-3 1SPD DX HP CLG COIL,PERIMETER_ZN_2 ZN PSZ-AC-3 UNITARY HP FAN - COOLING COIL NODE,PERIMETER_ZN_2 ZN PSZ-AC-3 UNITARY HP COOLING COIL - HEATING COIL NODE,Air Nodes
 Component Set,33,AIRLOOPHVAC:UNITARYSYSTEM,PERIMETER_ZN_3 ZN PSZ-AC-4 UNITARY HP,COIL:COOLING:DX:SINGLESPEED,PERIMETER_ZN_3 ZN PSZ-AC-4 1SPD DX HP CLG COIL,PERIMETER_ZN_3 ZN PSZ-AC-4 UNITARY HP FAN - COOLING COIL NODE,PERIMETER_ZN_3 ZN PSZ-AC-4 UNITARY HP COOLING COIL - HEATING COIL NODE,Air Nodes
 Component Set,34,AIRLOOPHVAC:UNITARYSYSTEM,PERIMETER_ZN_4 ZN PSZ-AC-5 UNITARY HP,COIL:COOLING:DX:SINGLESPEED,PERIMETER_ZN_4 ZN PSZ-AC-5 1SPD DX HP CLG COIL,PERIMETER_ZN_4 ZN PSZ-AC-5 UNITARY HP FAN - COOLING COIL NODE,PERIMETER_ZN_4 ZN PSZ-AC-5 UNITARY HP COOLING COIL - HEATING COIL NODE,Air Nodes
 Component Set,35,AIRLOOPHVAC:UNITARYSYSTEM,CORE_ZN ZN PSZ-AC-1 UNITARY HP,COIL:HEATING:DX:SINGLESPEED,CORE_ZN ZN HP HTG COIL,CORE_ZN ZN PSZ-AC-1 UNITARY HP COOLING COIL - HEATING COIL NODE,CORE_ZN ZN PSZ-AC-1 UNITARY HP HEATING COIL - SUPPLEMENTAL COIL NODE,Air Nodes
 Component Set,36,AIRLOOPHVAC:UNITARYSYSTEM,PERIMETER_ZN_1 ZN PSZ-AC-2 UNITARY HP,COIL:HEATING:DX:SINGLESPEED,PERIMETER_ZN_1 ZN HP HTG COIL,PERIMETER_ZN_1 ZN PSZ-AC-2 UNITARY HP COOLING COIL - HEATING COIL NODE,PERIMETER_ZN_1 ZN PSZ-AC-2 UNITARY HP HEATING COIL - SUPPLEMENTAL COIL NODE,Air Nodes
 Component Set,37,AIRLOOPHVAC:UNITARYSYSTEM,PERIMETER_ZN_2 ZN PSZ-AC-3 UNITARY HP,COIL:HEATING:DX:SINGLESPEED,PERIMETER_ZN_2 ZN HP HTG COIL,PERIMETER_ZN_2 ZN PSZ-AC-3 UNITARY HP COOLING COIL - HEATING COIL NODE,PERIMETER_ZN_2 ZN PSZ-AC-3 UNITARY HP HEATING COIL - SUPPLEMENTAL COIL NODE,Air Nodes
 Component Set,38,AIRLOOPHVAC:UNITARYSYSTEM,PERIMETER_ZN_3 ZN PSZ-AC-4 UNITARY HP,COIL:HEATING:DX:SINGLESPEED,PERIMETER_ZN_3 ZN HP HTG COIL,PERIMETER_ZN_3 ZN PSZ-AC-4 UNITARY HP COOLING COIL - HEATING COIL NODE,PERIMETER_ZN_3 ZN PSZ-AC-4 UNITARY HP HEATING COIL - SUPPLEMENTAL COIL NODE,Air Nodes
 Component Set,39,AIRLOOPHVAC:UNITARYSYSTEM,PERIMETER_ZN_4 ZN PSZ-AC-5 UNITARY HP,COIL:HEATING:DX:SINGLESPEED,PERIMETER_ZN_4 ZN HP HTG COIL,PERIMETER_ZN_4 ZN PSZ-AC-5 UNITARY HP COOLING COIL - HEATING COIL NODE,PERIMETER_ZN_4 ZN PSZ-AC-5 UNITARY HP HEATING COIL - SUPPLEMENTAL COIL NODE,Air Nodes
 Component Set,40,AIRLOOPHVAC:UNITARYSYSTEM,CORE_ZN ZN PSZ-AC-1 UNITARY HP,FAN:ONOFF,CORE_ZN ZN PSZ-AC-1 FAN,NODE 54,CORE_ZN ZN PSZ-AC-1 UNITARY HP FAN - COOLING COIL NODE,Air Nodes
 Component Set,41,AIRLOOPHVAC:UNITARYSYSTEM,PERIMETER_ZN_1 ZN PSZ-AC-2 UNITARY HP,FAN:ONOFF,PERIMETER_ZN_1 ZN PSZ-AC-2 FAN,NODE 14,PERIMETER_ZN_1 ZN PSZ-AC-2 UNITARY HP FAN - COOLING COIL NODE,Air Nodes
 Component Set,42,AIRLOOPHVAC:UNITARYSYSTEM,PERIMETER_ZN_2 ZN PSZ-AC-3 UNITARY HP,FAN:ONOFF,PERIMETER_ZN_2 ZN PSZ-AC-3 FAN,NODE 24,PERIMETER_ZN_2 ZN PSZ-AC-3 UNITARY HP FAN - COOLING COIL NODE,Air Nodes
 Component Set,43,AIRLOOPHVAC:UNITARYSYSTEM,PERIMETER_ZN_3 ZN PSZ-AC-4 UNITARY HP,FAN:ONOFF,PERIMETER_ZN_3 ZN PSZ-AC-4 FAN,NODE 34,PERIMETER_ZN_3 ZN PSZ-AC-4 UNITARY HP FAN - COOLING COIL NODE,Air Nodes
 Component Set,44,AIRLOOPHVAC:UNITARYSYSTEM,PERIMETER_ZN_4 ZN PSZ-AC-5 UNITARY HP,FAN:ONOFF,PERIMETER_ZN_4 ZN PSZ-AC-5 FAN,NODE 44,PERIMETER_ZN_4 ZN PSZ-AC-5 UNITARY HP FAN - COOLING COIL NODE,Air Nodes
 Component Set,45,AIRLOOPHVAC:UNITARYSYSTEM,CORE_ZN ZN PSZ-AC-1 UNITARY HP,COIL:HEATING:FUEL,CORE_ZN ZN PSZ-AC-1 GAS BACKUP HTG COIL,CORE_ZN ZN PSZ-AC-1 UNITARY HP HEATING COIL - SUPPLEMENTAL COIL NODE,NODE 48,Air Nodes
 Component Set,46,AIRLOOPHVAC:UNITARYSYSTEM,PERIMETER_ZN_1 ZN PSZ-AC-2 UNITARY HP,COIL:HEATING:FUEL,PERIMETER_ZN_1 ZN PSZ-AC-2 GAS BACKUP HTG COIL,PERIMETER_ZN_1 ZN PSZ-AC-2 UNITARY HP HEATING COIL - SUPPLEMENTAL COIL NODE,NODE 8,Air Nodes
 Component Set,47,AIRLOOPHVAC:UNITARYSYSTEM,PERIMETER_ZN_2 ZN PSZ-AC-3 UNITARY HP,COIL:HEATING:FUEL,PERIMETER_ZN_2 ZN PSZ-AC-3 GAS BACKUP HTG COIL,PERIMETER_ZN_2 ZN PSZ-AC-3 UNITARY HP HEATING COIL - SUPPLEMENTAL COIL NODE,NODE 18,Air Nodes
 Component Set,48,AIRLOOPHVAC:UNITARYSYSTEM,PERIMETER_ZN_3 ZN PSZ-AC-4 UNITARY HP,COIL:HEATING:FUEL,PERIMETER_ZN_3 ZN PSZ-AC-4 GAS BACKUP HTG COIL,PERIMETER_ZN_3 ZN PSZ-AC-4 UNITARY HP HEATING COIL - SUPPLEMENTAL COIL NODE,NODE 28,Air Nodes
 Component Set,49,AIRLOOPHVAC:UNITARYSYSTEM,PERIMETER_ZN_4 ZN PSZ-AC-5 UNITARY HP,COIL:HEATING:FUEL,PERIMETER_ZN_4 ZN PSZ-AC-5 GAS BACKUP HTG COIL,PERIMETER_ZN_4 ZN PSZ-AC-5 UNITARY HP HEATING COIL - SUPPLEMENTAL COIL NODE,NODE 38,Air Nodes
! ===============================================================
! <# Plant Loops>,<Number of Plant Loops>
 #Plant Loops,1
! <Plant Loop>,<Plant Loop Name>,<Loop Type>,<Inlet Node Name>,<Outlet Node Name>,<Branch List>,<Connector List>
! <Plant Loop Connector>,<Connector Type>,<Connector Name>,<Loop Name>,<Loop Type>,<Number of Inlets/Outlets>
! <Plant Loop Connector Branches>,<Connector Node Count>,<Connector Type>,<Connector Name>,<Inlet Branch>,<Outlet Branch>,<Loop Name>,<Loop Type>
! <Plant Loop Connector Nodes>,<Connector Node Count>,<Connector Type>,<Connector Name>,<Inlet Node>,<Outlet Node>,<Loop Name>,<Loop Type>
! <Plant Loop Supply Connection>,<Plant Loop Name>,<Supply Side Outlet Node Name>,<Demand Side Inlet Node Name>
! <Plant Loop Return Connection>,<Plant Loop Name>,<Demand Side Outlet Node Name>,<Supply Side Inlet Node Name>
 Plant Loop,MAIN SERVICE WATER LOOP,Demand,NODE 60,NODE 61,MAIN SERVICE WATER LOOP DEMAND BRANCHES,MAIN SERVICE WATER LOOP DEMAND CONNECTOR LIST
   Plant Loop Connector,Splitter,MAIN SERVICE WATER LOOP DEMAND SPLITTER,MAIN SERVICE WATER LOOP,Demand,3
     Plant Loop Connector Branches,1,Splitter,MAIN SERVICE WATER LOOP DEMAND SPLITTER,MAIN SERVICE WATER LOOP DEMAND INLET BRANCH,MAIN SERVICE WATER LOOP DEMAND BRANCH 1,MAIN SERVICE WATER LOOP,Demand
     Plant Loop Connector Nodes,   1,Splitter,MAIN SERVICE WATER LOOP DEMAND SPLITTER,MAIN SERVICE WATER LOOP DEMAND INLET PIPE NODE,NODE 62,MAIN SERVICE WATER LOOP,Demand
     Plant Loop Connector Branches,2,Splitter,MAIN SERVICE WATER LOOP DEMAND SPLITTER,MAIN SERVICE WATER LOOP DEMAND INLET BRANCH,MAIN SERVICE WATER LOOP DEMAND BRANCH 2,MAIN SERVICE WATER LOOP,Demand
     Plant Loop Connector Nodes,   2,Splitter,MAIN SERVICE WATER LOOP DEMAND SPLITTER,MAIN SERVICE WATER LOOP DEMAND INLET PIPE NODE,NODE 70,MAIN SERVICE WATER LOOP,Demand
     Plant Loop Connector Branches,3,Splitter,MAIN SERVICE WATER LOOP DEMAND SPLITTER,MAIN SERVICE WATER LOOP DEMAND INLET BRANCH,MAIN SERVICE WATER LOOP DEMAND BYPASS BRANCH,MAIN SERVICE WATER LOOP,Demand
     Plant Loop Connector Nodes,   3,Splitter,MAIN SERVICE WATER LOOP DEMAND SPLITTER,MAIN SERVICE WATER LOOP DEMAND INLET PIPE NODE,MAIN SERVICE WATER LOOP DEMAND BYPASS PIPE INLET NODE,MAIN SERVICE WATER LOOP,Demand
   Plant Loop Connector,Mixer,MAIN SERVICE WATER LOOP DEMAND MIXER,MAIN SERVICE WATER LOOP,Demand,3
     Plant Loop Connector Branches,1,Mixer,MAIN SERVICE WATER LOOP DEMAND MIXER,MAIN SERVICE WATER LOOP DEMAND BRANCH 1,MAIN SERVICE WATER LOOP DEMAND OUTLET BRANCH,MAIN SERVICE WATER LOOP,Demand
     Plant Loop Connector Nodes,   1,Mixer,MAIN SERVICE WATER LOOP DEMAND MIXER,NODE 67,NODE 69,MAIN SERVICE WATER LOOP,Demand
     Plant Loop Connector Branches,2,Mixer,MAIN SERVICE WATER LOOP DEMAND MIXER,MAIN SERVICE WATER LOOP DEMAND BRANCH 2,MAIN SERVICE WATER LOOP DEMAND OUTLET BRANCH,MAIN SERVICE WATER LOOP,Demand
     Plant Loop Connector Nodes,   2,Mixer,MAIN SERVICE WATER LOOP DEMAND MIXER,NODE 71,NODE 69,MAIN SERVICE WATER LOOP,Demand
     Plant Loop Connector Branches,3,Mixer,MAIN SERVICE WATER LOOP DEMAND MIXER,MAIN SERVICE WATER LOOP DEMAND BYPASS BRANCH,MAIN SERVICE WATER LOOP DEMAND OUTLET BRANCH,MAIN SERVICE WATER LOOP,Demand
     Plant Loop Connector Nodes,   3,Mixer,MAIN SERVICE WATER LOOP DEMAND MIXER,MAIN SERVICE WATER LOOP DEMAND BYPASS PIPE OUTLET NODE,NODE 69,MAIN SERVICE WATER LOOP,Demand
 Plant Loop,MAIN SERVICE WATER LOOP,Supply,NODE 57,NODE 58,MAIN SERVICE WATER LOOP SUPPLY BRANCHES,MAIN SERVICE WATER LOOP SUPPLY CONNECTOR LIST
   Plant Loop Connector,Splitter,MAIN SERVICE WATER LOOP SUPPLY SPLITTER,MAIN SERVICE WATER LOOP,Supply,2
     Plant Loop Connector Branches,1,Splitter,MAIN SERVICE WATER LOOP SUPPLY SPLITTER,MAIN SERVICE WATER LOOP SUPPLY INLET BRANCH,MAIN SERVICE WATER LOOP SUPPLY BRANCH 1,MAIN SERVICE WATER LOOP,Supply
     Plant Loop Connector Nodes,   1,Splitter,MAIN SERVICE WATER LOOP SUPPLY SPLITTER,NODE 63,NODE 59,MAIN SERVICE WATER LOOP,Supply
     Plant Loop Connector Branches,2,Splitter,MAIN SERVICE WATER LOOP SUPPLY SPLITTER,MAIN SERVICE WATER LOOP SUPPLY INLET BRANCH,MAIN SERVICE WATER LOOP SUPPLY BRANCH 2,MAIN SERVICE WATER LOOP,Supply
     Plant Loop Connector Nodes,   2,Splitter,MAIN SERVICE WATER LOOP SUPPLY SPLITTER,NODE 63,NODE 65,MAIN SERVICE WATER LOOP,Supply
   Plant Loop Connector,Mixer,MAIN SERVICE WATER LOOP SUPPLY MIXER,MAIN SERVICE WATER LOOP,Supply,2
     Plant Loop Connector Branches,1,Mixer,MAIN SERVICE WATER LOOP SUPPLY MIXER,MAIN SERVICE WATER LOOP SUPPLY BRANCH 1,MAIN SERVICE WATER LOOP SUPPLY OUTLET BRANCH,MAIN SERVICE WATER LOOP,Supply
     Plant Loop Connector Nodes,   1,Mixer,MAIN SERVICE WATER LOOP SUPPLY MIXER,NODE 64,NODE 68,MAIN SERVICE WATER LOOP,Supply
     Plant Loop Connector Branches,2,Mixer,MAIN SERVICE WATER LOOP SUPPLY MIXER,MAIN SERVICE WATER LOOP SUPPLY BRANCH 2,MAIN SERVICE WATER LOOP SUPPLY OUTLET BRANCH,MAIN SERVICE WATER LOOP,Supply
     Plant Loop Connector Nodes,   2,Mixer,MAIN SERVICE WATER LOOP SUPPLY MIXER,NODE 66,NODE 68,MAIN SERVICE WATER LOOP,Supply
 Plant Loop Supply Connection,MAIN SERVICE WATER LOOP,NODE 58,NODE 60
 Plant Loop Return Connection,MAIN SERVICE WATER LOOP,NODE 61,NODE 57
! ===============================================================
! <# Condenser Loops>,<Number of Condenser Loops>
 #Condenser Loops,0
! <Condenser Loop>,<Condenser Loop Name>,<Loop Type>,<Inlet Node Name>,<Outlet Node Name>,<Branch List>,<Connector List>
! <Condenser Loop Connector>,<Connector Type>,<Connector Name>,<Loop Name>,<Loop Type>,<Number of Inlets/Outlets>
! <Condenser Loop Connector Branches>,<Connector Node Count>,<Connector Type>,<Connector Name>,<Inlet Branch>,<Outlet Branch>,<Loop Name>,<Loop Type>
! <Condenser Loop Connector Nodes>,<Connector Node Count>,<Connector Type>,<Connector Name>,<Inlet Node>,<Outlet Node>,<Loop Name>,<Loop Type>
! <Condenser Loop Supply Connection>,<Condenser Loop Name>,<Supply Side Outlet Node Name>,<Demand Side Inlet Node Name>
! <Condenser Loop Return Connection>,<Condenser Loop Name>,<Demand Side Outlet Node Name>,<Supply Side Inlet Node Name>
! ===============================================================
! <# Controlled Zones>,<Number of Controlled Zones>
 #Controlled Zones,5
! <Controlled Zone>,<Controlled Zone Name>,<Equip List Name>,<Control List Name>,<Zone Node Name>,<# Inlet Nodes>,<# Exhaust Nodes>,<# Return Nodes>
! <Controlled Zone Inlet>,<Inlet Node Count>,<Controlled Zone Name>,<Supply Air Inlet Node Name>,<SD Sys:Cooling/Heating [DD:Cooling] Inlet Node Name>,<DD Sys:Heating Inlet Node Name>
! <Controlled Zone Exhaust>,<Exhaust Node Count>,<Controlled Zone Name>,<Exhaust Air Node Name>
 Controlled Zone,CORE_ZN ZN,CORE_ZN ZN EQUIPMENT LIST,,NODE 2,1,0,1
   Controlled Zone Inlet,1,CORE_ZN ZN,NODE 51,NODE 56,N/A
   Controlled Zone Return,1,CORE_ZN ZN,NODE 55
 Controlled Zone,PERIMETER_ZN_1 ZN,PERIMETER_ZN_1 ZN EQUIPMENT LIST,,NODE 3,1,0,1
   Controlled Zone Inlet,1,PERIMETER_ZN_1 ZN,NODE 11,NODE 16,N/A
   Controlled Zone Return,1,PERIMETER_ZN_1 ZN,NODE 15
 Controlled Zone,PERIMETER_ZN_2 ZN,PERIMETER_ZN_2 ZN EQUIPMENT LIST,,NODE 4,1,0,1
   Controlled Zone Inlet,1,PERIMETER_ZN_2 ZN,NODE 21,NODE 26,N/A
   Controlled Zone Return,1,PERIMETER_ZN_2 ZN,NODE 25
 Controlled Zone,PERIMETER_ZN_3 ZN,PERIMETER_ZN_3 ZN EQUIPMENT LIST,,NODE 5,1,0,1
   Controlled Zone Inlet,1,PERIMETER_ZN_3 ZN,NODE 31,NODE 36,N/A
   Controlled Zone Return,1,PERIMETER_ZN_3 ZN,NODE 35
 Controlled Zone,PERIMETER_ZN_4 ZN,PERIMETER_ZN_4 ZN EQUIPMENT LIST,,NODE 6,1,0,1
   Controlled Zone Inlet,1,PERIMETER_ZN_4 ZN,NODE 41,NODE 46,N/A
   Controlled Zone Return,1,PERIMETER_ZN_4 ZN,NODE 45
! ===============================================================
! <#Zone Equipment Lists>,<Number of Zone Equipment Lists>
 #Zone Equipment Lists,5
! <Zone Equipment List>,<Zone Equipment List Count>,<Zone Equipment List Name>,<Zone Name>,<Number of Components>
! <Zone Equipment Component>,<Component Count>,<Component Type>,<Component Name>,<Zone Name>,<Heating Priority>,<Cooling Priority>
 Zone Equipment List,2,CORE_ZN ZN EQUIPMENT LIST,CORE_ZN ZN,1
   Zone Equipment Component,1,ZONEHVAC:AIRDISTRIBUTIONUNIT,ADU CORE_ZN ZN PSZ-AC-1 DIFFUSER,CORE_ZN ZN,1,1
 Zone Equipment List,3,PERIMETER_ZN_1 ZN EQUIPMENT LIST,PERIMETER_ZN_1 ZN,1
   Zone Equipment Component,1,ZONEHVAC:AIRDISTRIBUTIONUNIT,ADU PERIMETER_ZN_1 ZN PSZ-AC-2 DIFFUSER,PERIMETER_ZN_1 ZN,1,1
 Zone Equipment List,4,PERIMETER_ZN_2 ZN EQUIPMENT LIST,PERIMETER_ZN_2 ZN,1
   Zone Equipment Component,1,ZONEHVAC:AIRDISTRIBUTIONUNIT,ADU PERIMETER_ZN_2 ZN PSZ-AC-3 DIFFUSER,PERIMETER_ZN_2 ZN,1,1
 Zone Equipment List,5,PERIMETER_ZN_3 ZN EQUIPMENT LIST,PERIMETER_ZN_3 ZN,1
   Zone Equipment Component,1,ZONEHVAC:AIRDISTRIBUTIONUNIT,ADU PERIMETER_ZN_3 ZN PSZ-AC-4 DIFFUSER,PERIMETER_ZN_3 ZN,1,1
 Zone Equipment List,6,PERIMETER_ZN_4 ZN EQUIPMENT LIST,PERIMETER_ZN_4 ZN,1
   Zone Equipment Component,1,ZONEHVAC:AIRDISTRIBUTIONUNIT,ADU PERIMETER_ZN_4 ZN PSZ-AC-5 DIFFUSER,PERIMETER_ZN_4 ZN,1,1
! ===============================================================
! <#AirLoopHVACs>,<Number of AirLoopHVACs>
 #AirLoopHVACs,5
! <AirLoopHVAC>,<Air Loop Name>,<# Return Nodes>,<# Supply Nodes>,<# Zones Cooled>,<# Zones Heated>,<Outdoor Air Used>
! <AirLoop Return Connections>,<Connection Count>,<AirLoopHVAC Name>,<Zn Eqp Return Node #>,<Zn Eqp Return Node Name>,<AirLoop Return Node #>,<Air Loop Return Node Name>
! <AirLoop Supply Connections>,<Connection Count>,<AirLoopHVAC Name>,<Zn Eqp Supply Node #>,<Zn Eqp Supply Node Name>,<AirLoop Supply Node #>,<Air Loop Supply Node Name>
! <Cooled Zone Info>,<Cooled Zone Count>,<Cooled Zone Name>,<Cooled Zone Inlet Node #>,<Cooled Zone Inlet Node Name>,<AirLoopHVAC Name>
! <Heated Zone Info>,<Heated Zone Count>,<Heated Zone Name>,<Heated Zone Inlet Node #>,<Heated Zone Inlet Node Name>,<AirLoopHVAC Name>
! <Outdoor Air Connections>,<OA Inlet Node #>,<OA Return Air Inlet Node Name>,<OA Outlet Node #>,<OA Mixed Air Outlet Node Name>,<AirLoopHVAC Name>
! <AirLoopHVAC Connector>,<Connector Type>,<Connector Name>,<Loop Name>,<Loop Type>,<Number of Inlets/Outlets>
! <AirLoopHVAC Connector Branches>,<Connector Node Count>,<Connector Type>,<Connector Name>,<Inlet Branch>,<Outlet Branch>,<Loop Name>,<Loop Type>
! <AirLoopHVAC Connector Nodes>,<Connector Node Count>,<Connector Type>,<Connector Name>,<Inlet Node>,<Outlet Node>,<Loop Name>,<Loop Type>
 AirLoopHVAC,CORE_ZN ZN PSZ-AC-1,1,1,1,0,Yes
   AirLoop Return Connections,1,CORE_ZN ZN PSZ-AC-1,54,NODE 50,21,NODE 47
   AirLoop Supply Connections,1,CORE_ZN ZN PSZ-AC-1,12,NODE 49,11,NODE 48
   Cooled Zone Info,1,CORE_ZN ZN,1,NODE 51,CORE_ZN ZN PSZ-AC-1
   Outdoor Air Connections,21,NODE 47,22,NODE 54,CORE_ZN ZN PSZ-AC-1
 AirLoopHVAC,PERIMETER_ZN_1 ZN PSZ-AC-2,1,1,1,0,Yes
   AirLoop Return Connections,1,PERIMETER_ZN_1 ZN PSZ-AC-2,55,NODE 10,23,NODE 7
   AirLoop Supply Connections,1,PERIMETER_ZN_1 ZN PSZ-AC-2,14,NODE 9,13,NODE 8
   Cooled Zone Info,1,PERIMETER_ZN_1 ZN,3,NODE 11,PERIMETER_ZN_1 ZN PSZ-AC-2
   Outdoor Air Connections,23,NODE 7,24,NODE 14,PERIMETER_ZN_1 ZN PSZ-AC-2
 AirLoopHVAC,PERIMETER_ZN_2 ZN PSZ-AC-3,1,1,1,0,Yes
   AirLoop Return Connections,1,PERIMETER_ZN_2 ZN PSZ-AC-3,56,NODE 20,25,NODE 17
   AirLoop Supply Connections,1,PERIMETER_ZN_2 ZN PSZ-AC-3,16,NODE 19,15,NODE 18
   Cooled Zone Info,1,PERIMETER_ZN_2 ZN,5,NODE 21,PERIMETER_ZN_2 ZN PSZ-AC-3
   Outdoor Air Connections,25,NODE 17,26,NODE 24,PERIMETER_ZN_2 ZN PSZ-AC-3
 AirLoopHVAC,PERIMETER_ZN_3 ZN PSZ-AC-4,1,1,1,0,Yes
   AirLoop Return Connections,1,PERIMETER_ZN_3 ZN PSZ-AC-4,57,NODE 30,27,NODE 27
   AirLoop Supply Connections,1,PERIMETER_ZN_3 ZN PSZ-AC-4,18,NODE 29,17,NODE 28
   Cooled Zone Info,1,PERIMETER_ZN_3 ZN,7,NODE 31,PERIMETER_ZN_3 ZN PSZ-AC-4
   Outdoor Air Connections,27,NODE 27,28,NODE 34,PERIMETER_ZN_3 ZN PSZ-AC-4
 AirLoopHVAC,PERIMETER_ZN_4 ZN PSZ-AC-5,1,1,1,0,Yes
   AirLoop Return Connections,1,PERIMETER_ZN_4 ZN PSZ-AC-5,58,NODE 40,29,NODE 37
   AirLoop Supply Connections,1,PERIMETER_ZN_4 ZN PSZ-AC-5,20,NODE 39,19,NODE 38
   Cooled Zone Info,1,PERIMETER_ZN_4 ZN,9,NODE 41,PERIMETER_ZN_4 ZN PSZ-AC-5
   Outdoor Air Connections,29,NODE 37,30,NODE 44,PERIMETER_ZN_4 ZN PSZ-AC-5
! ===============================================================
! <#Parent Node Connections>,<Number of Parent Node Connections>
 #Parent Node Connections,83
! <Parent Node Connection>,<Node Name>,<Node ObjectType>,<Node ObjectName>,<Node ConnectionType>,<Node FluidStream>
 Parent Node Connection,NODE 47,BRANCH,CORE_ZN ZN PSZ-AC-1 MAIN BRANCH,Inlet,1
 Parent Node Connection,NODE 54,BRANCH,CORE_ZN ZN PSZ-AC-1 MAIN BRANCH,Internal,1
 Parent Node Connection,NODE 48,BRANCH,CORE_ZN ZN PSZ-AC-1 MAIN BRANCH,Outlet,1
 Parent Node Connection,NODE 7,BRANCH,PERIMETER_ZN_1 ZN PSZ-AC-2 MAIN BRANCH,Inlet,1
 Parent Node Connection,NODE 14,BRANCH,PERIMETER_ZN_1 ZN PSZ-AC-2 MAIN BRANCH,Internal,1
 Parent Node Connection,NODE 8,BRANCH,PERIMETER_ZN_1 ZN PSZ-AC-2 MAIN BRANCH,Outlet,1
 Parent Node Connection,NODE 17,BRANCH,PERIMETER_ZN_2 ZN PSZ-AC-3 MAIN BRANCH,Inlet,1
 Parent Node Connection,NODE 24,BRANCH,PERIMETER_ZN_2 ZN PSZ-AC-3 MAIN BRANCH,Internal,1
 Parent Node Connection,NODE 18,BRANCH,PERIMETER_ZN_2 ZN PSZ-AC-3 MAIN BRANCH,Outlet,1
 Parent Node Connection,NODE 27,BRANCH,PERIMETER_ZN_3 ZN PSZ-AC-4 MAIN BRANCH,Inlet,1
 Parent Node Connection,NODE 34,BRANCH,PERIMETER_ZN_3 ZN PSZ-AC-4 MAIN BRANCH,Internal,1
 Parent Node Connection,NODE 28,BRANCH,PERIMETER_ZN_3 ZN PSZ-AC-4 MAIN BRANCH,Outlet,1
 Parent Node Connection,NODE 37,BRANCH,PERIMETER_ZN_4 ZN PSZ-AC-5 MAIN BRANCH,Inlet,1
 Parent Node Connection,NODE 44,BRANCH,PERIMETER_ZN_4 ZN PSZ-AC-5 MAIN BRANCH,Internal,1
 Parent Node Connection,NODE 38,BRANCH,PERIMETER_ZN_4 ZN PSZ-AC-5 MAIN BRANCH,Outlet,1
 Parent Node Connection,NODE 57,BRANCH,MAIN SERVICE WATER LOOP SUPPLY INLET BRANCH,Inlet,1
 Parent Node Connection,NODE 63,BRANCH,MAIN SERVICE WATER LOOP SUPPLY INLET BRANCH,Outlet,1
 Parent Node Connection,NODE 59,BRANCH,MAIN SERVICE WATER LOOP SUPPLY BRANCH 1,Inlet,1
 Parent Node Connection,NODE 64,BRANCH,MAIN SERVICE WATER LOOP SUPPLY BRANCH 1,Outlet,1
 Parent Node Connection,NODE 65,BRANCH,MAIN SERVICE WATER LOOP SUPPLY BRANCH 2,Inlet,1
 Parent Node Connection,NODE 66,BRANCH,MAIN SERVICE WATER LOOP SUPPLY BRANCH 2,Outlet,1
 Parent Node Connection,NODE 68,BRANCH,MAIN SERVICE WATER LOOP SUPPLY OUTLET BRANCH,Inlet,1
 Parent Node Connection,NODE 58,BRANCH,MAIN SERVICE WATER LOOP SUPPLY OUTLET BRANCH,Outlet,1
 Parent Node Connection,NODE 60,BRANCH,MAIN SERVICE WATER LOOP DEMAND INLET BRANCH,Inlet,1
 Parent Node Connection,MAIN SERVICE WATER LOOP DEMAND INLET PIPE NODE,BRANCH,MAIN SERVICE WATER LOOP DEMAND INLET BRANCH,Outlet,1
 Parent Node Connection,NODE 62,BRANCH,MAIN SERVICE WATER LOOP DEMAND BRANCH 1,Inlet,1
 Parent Node Connection,NODE 67,BRANCH,MAIN SERVICE WATER LOOP DEMAND BRANCH 1,Outlet,1
 Parent Node Connection,NODE 70,BRANCH,MAIN SERVICE WATER LOOP DEMAND BRANCH 2,Inlet,1
 Parent Node Connection,NODE 71,BRANCH,MAIN SERVICE WATER LOOP DEMAND BRANCH 2,Outlet,1
 Parent Node Connection,MAIN SERVICE WATER LOOP DEMAND BYPASS PIPE INLET NODE,BRANCH,MAIN SERVICE WATER LOOP DEMAND BYPASS BRANCH,Inlet,1
 Parent Node Connection,MAIN SERVICE WATER LOOP DEMAND BYPASS PIPE OUTLET NODE,BRANCH,MAIN SERVICE WATER LOOP DEMAND BYPASS BRANCH,Outlet,1
 Parent Node Connection,NODE 69,BRANCH,MAIN SERVICE WATER LOOP DEMAND OUTLET BRANCH,Inlet,1
 Parent Node Connection,NODE 61,BRANCH,MAIN SERVICE WATER LOOP DEMAND OUTLET BRANCH,Outlet,1
 Parent Node Connection,NODE 49,AIRLOOPHVAC:SUPPLYPATH,CORE_ZN ZN PSZ-AC-1 NODE 49 SUPPLY PATH,Inlet,1
 Parent Node Connection,NODE 9,AIRLOOPHVAC:SUPPLYPATH,PERIMETER_ZN_1 ZN PSZ-AC-2 NODE 9 SUPPLY PATH,Inlet,1
 Parent Node Connection,NODE 19,AIRLOOPHVAC:SUPPLYPATH,PERIMETER_ZN_2 ZN PSZ-AC-3 NODE 19 SUPPLY PATH,Inlet,1
 Parent Node Connection,NODE 29,AIRLOOPHVAC:SUPPLYPATH,PERIMETER_ZN_3 ZN PSZ-AC-4 NODE 29 SUPPLY PATH,Inlet,1
 Parent Node Connection,NODE 39,AIRLOOPHVAC:SUPPLYPATH,PERIMETER_ZN_4 ZN PSZ-AC-5 NODE 39 SUPPLY PATH,Inlet,1
 Parent Node Connection,NODE 50,AIRLOOPHVAC:RETURNPATH,CORE_ZN ZN PSZ-AC-1 RETURN PATH,Outlet,1
 Parent Node Connection,NODE 10,AIRLOOPHVAC:RETURNPATH,PERIMETER_ZN_1 ZN PSZ-AC-2 RETURN PATH,Outlet,1
 Parent Node Connection,NODE 20,AIRLOOPHVAC:RETURNPATH,PERIMETER_ZN_2 ZN PSZ-AC-3 RETURN PATH,Outlet,1
 Parent Node Connection,NODE 30,AIRLOOPHVAC:RETURNPATH,PERIMETER_ZN_3 ZN PSZ-AC-4 RETURN PATH,Outlet,1
 Parent Node Connection,NODE 40,AIRLOOPHVAC:RETURNPATH,PERIMETER_ZN_4 ZN PSZ-AC-5 RETURN PATH,Outlet,1
 Parent Node Connection,NODE 57,PLANTLOOP,MAIN SERVICE WATER LOOP,Inlet,1
 Parent Node Connection,NODE 58,PLANTLOOP,MAIN SERVICE WATER LOOP,Outlet,1
 Parent Node Connection,NODE 60,PLANTLOOP,MAIN SERVICE WATER LOOP,Inlet,1
 Parent Node Connection,NODE 61,PLANTLOOP,MAIN SERVICE WATER LOOP,Outlet,1
 Parent Node Connection,NODE 58,PLANTLOOP,MAIN SERVICE WATER LOOP,Sensor,1
 Parent Node Connection,NODE 51,ZONEHVAC:AIRDISTRIBUTIONUNIT,ADU CORE_ZN ZN PSZ-AC-1 DIFFUSER,Outlet,1
 Parent Node Connection,NODE 11,ZONEHVAC:AIRDISTRIBUTIONUNIT,ADU PERIMETER_ZN_1 ZN PSZ-AC-2 DIFFUSER,Outlet,1
 Parent Node Connection,NODE 21,ZONEHVAC:AIRDISTRIBUTIONUNIT,ADU PERIMETER_ZN_2 ZN PSZ-AC-3 DIFFUSER,Outlet,1
 Parent Node Connection,NODE 31,ZONEHVAC:AIRDISTRIBUTIONUNIT,ADU PERIMETER_ZN_3 ZN PSZ-AC-4 DIFFUSER,Outlet,1
 Parent Node Connection,NODE 41,ZONEHVAC:AIRDISTRIBUTIONUNIT,ADU PERIMETER_ZN_4 ZN PSZ-AC-5 DIFFUSER,Outlet,1
 Parent Node Connection,NODE 47,AIRLOOPHVAC,CORE_ZN ZN PSZ-AC-1,Inlet,1
 Parent Node Connection,NODE 50,AIRLOOPHVAC,CORE_ZN ZN PSZ-AC-1,Outlet,1
 Parent Node Connection,NODE 49,AIRLOOPHVAC,CORE_ZN ZN PSZ-AC-1,Inlet,1
 Parent Node Connection,NODE 48,AIRLOOPHVAC,CORE_ZN ZN PSZ-AC-1,Outlet,1
 Parent Node Connection,NODE 7,AIRLOOPHVAC,PERIMETER_ZN_1 ZN PSZ-AC-2,Inlet,1
 Parent Node Connection,NODE 10,AIRLOOPHVAC,PERIMETER_ZN_1 ZN PSZ-AC-2,Outlet,1
 Parent Node Connection,NODE 9,AIRLOOPHVAC,PERIMETER_ZN_1 ZN PSZ-AC-2,Inlet,1
 Parent Node Connection,NODE 8,AIRLOOPHVAC,PERIMETER_ZN_1 ZN PSZ-AC-2,Outlet,1
 Parent Node Connection,NODE 17,AIRLOOPHVAC,PERIMETER_ZN_2 ZN PSZ-AC-3,Inlet,1
 Parent Node Connection,NODE 20,AIRLOOPHVAC,PERIMETER_ZN_2 ZN PSZ-AC-3,Outlet,1
 Parent Node Connection,NODE 19,AIRLOOPHVAC,PERIMETER_ZN_2 ZN PSZ-AC-3,Inlet,1
 Parent Node Connection,NODE 18,AIRLOOPHVAC,PERIMETER_ZN_2 ZN PSZ-AC-3,Outlet,1
 Parent Node Connection,NODE 27,AIRLOOPHVAC,PERIMETER_ZN_3 ZN PSZ-AC-4,Inlet,1
 Parent Node Connection,NODE 30,AIRLOOPHVAC,PERIMETER_ZN_3 ZN PSZ-AC-4,Outlet,1
 Parent Node Connection,NODE 29,AIRLOOPHVAC,PERIMETER_ZN_3 ZN PSZ-AC-4,Inlet,1
 Parent Node Connection,NODE 28,AIRLOOPHVAC,PERIMETER_ZN_3 ZN PSZ-AC-4,Outlet,1
 Parent Node Connection,NODE 37,AIRLOOPHVAC,PERIMETER_ZN_4 ZN PSZ-AC-5,Inlet,1
 Parent Node Connection,NODE 40,AIRLOOPHVAC,PERIMETER_ZN_4 ZN PSZ-AC-5,Outlet,1
 Parent Node Connection,NODE 39,AIRLOOPHVAC,PERIMETER_ZN_4 ZN PSZ-AC-5,Inlet,1
 Parent Node Connection,NODE 38,AIRLOOPHVAC,PERIMETER_ZN_4 ZN PSZ-AC-5,Outlet,1
 Parent Node Connection,NODE 54,AIRLOOPHVAC:UNITARYSYSTEM,CORE_ZN ZN PSZ-AC-1 UNITARY HP,Inlet,1
 Parent Node Connection,NODE 48,AIRLOOPHVAC:UNITARYSYSTEM,CORE_ZN ZN PSZ-AC-1 UNITARY HP,Outlet,1
 Parent Node Connection,NODE 14,AIRLOOPHVAC:UNITARYSYSTEM,PERIMETER_ZN_1 ZN PSZ-AC-2 UNITARY HP,Inlet,1
 Parent Node Connection,NODE 8,AIRLOOPHVAC:UNITARYSYSTEM,PERIMETER_ZN_1 ZN PSZ-AC-2 UNITARY HP,Outlet,1
 Parent Node Connection,NODE 24,AIRLOOPHVAC:UNITARYSYSTEM,PERIMETER_ZN_2 ZN PSZ-AC-3 UNITARY HP,Inlet,1
 Parent Node Connection,NODE 18,AIRLOOPHVAC:UNITARYSYSTEM,PERIMETER_ZN_2 ZN PSZ-AC-3 UNITARY HP,Outlet,1
 Parent Node Connection,NODE 34,AIRLOOPHVAC:UNITARYSYSTEM,PERIMETER_ZN_3 ZN PSZ-AC-4 UNITARY HP,Inlet,1
 Parent Node Connection,NODE 28,AIRLOOPHVAC:UNITARYSYSTEM,PERIMETER_ZN_3 ZN PSZ-AC-4 UNITARY HP,Outlet,1
 Parent Node Connection,NODE 44,AIRLOOPHVAC:UNITARYSYSTEM,PERIMETER_ZN_4 ZN PSZ-AC-5 UNITARY HP,Inlet,1
 Parent Node Connection,NODE 38,AIRLOOPHVAC:UNITARYSYSTEM,PERIMETER_ZN_4 ZN PSZ-AC-5 UNITARY HP,Outlet,1
! ===============================================================
! <#Non-Parent Node Connections>,<Number of Non-Parent Node Connections>
 #Non-Parent Node Connections,199
! <Non-Parent Node Connection>,<Node Name>,<Node ObjectType>,<Node ObjectName>,<Node ConnectionType>,<Node FluidStream>
 Non-Parent Node Connection,NODE 2,ZONEHVAC:EQUIPMENTCONNECTIONS,CORE_ZN ZN,ZoneNode,1
 Non-Parent Node Connection,NODE 51,ZONEHVAC:EQUIPMENTCONNECTIONS,CORE_ZN ZN,ZoneInlet,1
 Non-Parent Node Connection,NODE 55,ZONEHVAC:EQUIPMENTCONNECTIONS,CORE_ZN ZN,ZoneReturn,1
 Non-Parent Node Connection,NODE 3,ZONEHVAC:EQUIPMENTCONNECTIONS,PERIMETER_ZN_1 ZN,ZoneNode,1
 Non-Parent Node Connection,NODE 11,ZONEHVAC:EQUIPMENTCONNECTIONS,PERIMETER_ZN_1 ZN,ZoneInlet,1
 Non-Parent Node Connection,NODE 15,ZONEHVAC:EQUIPMENTCONNECTIONS,PERIMETER_ZN_1 ZN,ZoneReturn,1
 Non-Parent Node Connection,NODE 4,ZONEHVAC:EQUIPMENTCONNECTIONS,PERIMETER_ZN_2 ZN,ZoneNode,1
 Non-Parent Node Connection,NODE 21,ZONEHVAC:EQUIPMENTCONNECTIONS,PERIMETER_ZN_2 ZN,ZoneInlet,1
 Non-Parent Node Connection,NODE 25,ZONEHVAC:EQUIPMENTCONNECTIONS,PERIMETER_ZN_2 ZN,ZoneReturn,1
 Non-Parent Node Connection,NODE 5,ZONEHVAC:EQUIPMENTCONNECTIONS,PERIMETER_ZN_3 ZN,ZoneNode,1
 Non-Parent Node Connection,NODE 31,ZONEHVAC:EQUIPMENTCONNECTIONS,PERIMETER_ZN_3 ZN,ZoneInlet,1
 Non-Parent Node Connection,NODE 35,ZONEHVAC:EQUIPMENTCONNECTIONS,PERIMETER_ZN_3 ZN,ZoneReturn,1
 Non-Parent Node Connection,NODE 6,ZONEHVAC:EQUIPMENTCONNECTIONS,PERIMETER_ZN_4 ZN,ZoneNode,1
 Non-Parent Node Connection,NODE 41,ZONEHVAC:EQUIPMENTCONNECTIONS,PERIMETER_ZN_4 ZN,ZoneInlet,1
 Non-Parent Node Connection,NODE 45,ZONEHVAC:EQUIPMENTCONNECTIONS,PERIMETER_ZN_4 ZN,ZoneReturn,1
 Non-Parent Node Connection,NODE 59,WATERHEATER:MIXED,40GAL ELECTRICITY WATER HEATER - 40KBTU/HR,Inlet,1
 Non-Parent Node Connection,NODE 64,WATERHEATER:MIXED,40GAL ELECTRICITY WATER HEATER - 40KBTU/HR,Outlet,1
 Non-Parent Node Connection,NODE 52,OUTDOORAIR:NODELIST,OutdoorAir:NodeList,OutdoorAir,1
 Non-Parent Node Connection,NODE 12,OUTDOORAIR:NODELIST,OutdoorAir:NodeList,OutdoorAir,2
 Non-Parent Node Connection,NODE 22,OUTDOORAIR:NODELIST,OutdoorAir:NodeList,OutdoorAir,3
 Non-Parent Node Connection,NODE 32,OUTDOORAIR:NODELIST,OutdoorAir:NodeList,OutdoorAir,4
 Non-Parent Node Connection,NODE 42,OUTDOORAIR:NODELIST,OutdoorAir:NodeList,OutdoorAir,5
 Non-Parent Node Connection,MODEL OUTDOOR AIR NODE,OUTDOORAIR:NODE,OutdoorAir:Node,OutdoorAir,6
 Non-Parent Node Connection,NODE 58,SETPOINTMANAGER:SCHEDULED,SERVICE HOT WATER SETPOINT MANAGER,Setpoint,1
 Non-Parent Node Connection,NODE 2,SETPOINTMANAGER:SINGLEZONE:REHEAT,CORE_ZN ZN SETPOINT MANAGER SZ REHEAT,Sensor,1
 Non-Parent Node Connection,NODE 51,SETPOINTMANAGER:SINGLEZONE:REHEAT,CORE_ZN ZN SETPOINT MANAGER SZ REHEAT,Sensor,1
 Non-Parent Node Connection,NODE 48,SETPOINTMANAGER:SINGLEZONE:REHEAT,CORE_ZN ZN SETPOINT MANAGER SZ REHEAT,Setpoint,1
 Non-Parent Node Connection,NODE 3,SETPOINTMANAGER:SINGLEZONE:REHEAT,PERIMETER_ZN_1 ZN SETPOINT MANAGER SZ REHEAT,Sensor,1
 Non-Parent Node Connection,NODE 11,SETPOINTMANAGER:SINGLEZONE:REHEAT,PERIMETER_ZN_1 ZN SETPOINT MANAGER SZ REHEAT,Sensor,1
 Non-Parent Node Connection,NODE 8,SETPOINTMANAGER:SINGLEZONE:REHEAT,PERIMETER_ZN_1 ZN SETPOINT MANAGER SZ REHEAT,Setpoint,1
 Non-Parent Node Connection,NODE 4,SETPOINTMANAGER:SINGLEZONE:REHEAT,PERIMETER_ZN_2 ZN SETPOINT MANAGER SZ REHEAT,Sensor,1
 Non-Parent Node Connection,NODE 21,SETPOINTMANAGER:SINGLEZONE:REHEAT,PERIMETER_ZN_2 ZN SETPOINT MANAGER SZ REHEAT,Sensor,1
 Non-Parent Node Connection,NODE 18,SETPOINTMANAGER:SINGLEZONE:REHEAT,PERIMETER_ZN_2 ZN SETPOINT MANAGER SZ REHEAT,Setpoint,1
 Non-Parent Node Connection,NODE 5,SETPOINTMANAGER:SINGLEZONE:REHEAT,PERIMETER_ZN_3 ZN SETPOINT MANAGER SZ REHEAT,Sensor,1
 Non-Parent Node Connection,NODE 31,SETPOINTMANAGER:SINGLEZONE:REHEAT,PERIMETER_ZN_3 ZN SETPOINT MANAGER SZ REHEAT,Sensor,1
 Non-Parent Node Connection,NODE 28,SETPOINTMANAGER:SINGLEZONE:REHEAT,PERIMETER_ZN_3 ZN SETPOINT MANAGER SZ REHEAT,Setpoint,1
 Non-Parent Node Connection,NODE 6,SETPOINTMANAGER:SINGLEZONE:REHEAT,PERIMETER_ZN_4 ZN SETPOINT MANAGER SZ REHEAT,Sensor,1
 Non-Parent Node Connection,NODE 41,SETPOINTMANAGER:SINGLEZONE:REHEAT,PERIMETER_ZN_4 ZN SETPOINT MANAGER SZ REHEAT,Sensor,1
 Non-Parent Node Connection,NODE 38,SETPOINTMANAGER:SINGLEZONE:REHEAT,PERIMETER_ZN_4 ZN SETPOINT MANAGER SZ REHEAT,Setpoint,1
 Non-Parent Node Connection,NODE 48,SETPOINTMANAGER:MIXEDAIR,NODE 54 OS DEFAULT SPM,Sensor,1
 Non-Parent Node Connection,NODE 54,SETPOINTMANAGER:MIXEDAIR,NODE 54 OS DEFAULT SPM,Sensor,1
 Non-Parent Node Connection,CORE_ZN ZN PSZ-AC-1 UNITARY HP FAN - COOLING COIL NODE,SETPOINTMANAGER:MIXEDAIR,NODE 54 OS DEFAULT SPM,Sensor,1
 Non-Parent Node Connection,NODE 54,SETPOINTMANAGER:MIXEDAIR,NODE 54 OS DEFAULT SPM,Setpoint,1
 Non-Parent Node Connection,NODE 8,SETPOINTMANAGER:MIXEDAIR,NODE 14 OS DEFAULT SPM,Sensor,1
 Non-Parent Node Connection,NODE 14,SETPOINTMANAGER:MIXEDAIR,NODE 14 OS DEFAULT SPM,Sensor,1
 Non-Parent Node Connection,PERIMETER_ZN_1 ZN PSZ-AC-2 UNITARY HP FAN - COOLING COIL NODE,SETPOINTMANAGER:MIXEDAIR,NODE 14 OS DEFAULT SPM,Sensor,1
 Non-Parent Node Connection,NODE 14,SETPOINTMANAGER:MIXEDAIR,NODE 14 OS DEFAULT SPM,Setpoint,1
 Non-Parent Node Connection,NODE 18,SETPOINTMANAGER:MIXEDAIR,NODE 24 OS DEFAULT SPM,Sensor,1
 Non-Parent Node Connection,NODE 24,SETPOINTMANAGER:MIXEDAIR,NODE 24 OS DEFAULT SPM,Sensor,1
 Non-Parent Node Connection,PERIMETER_ZN_2 ZN PSZ-AC-3 UNITARY HP FAN - COOLING COIL NODE,SETPOINTMANAGER:MIXEDAIR,NODE 24 OS DEFAULT SPM,Sensor,1
 Non-Parent Node Connection,NODE 24,SETPOINTMANAGER:MIXEDAIR,NODE 24 OS DEFAULT SPM,Setpoint,1
 Non-Parent Node Connection,NODE 28,SETPOINTMANAGER:MIXEDAIR,NODE 34 OS DEFAULT SPM,Sensor,1
 Non-Parent Node Connection,NODE 34,SETPOINTMANAGER:MIXEDAIR,NODE 34 OS DEFAULT SPM,Sensor,1
 Non-Parent Node Connection,PERIMETER_ZN_3 ZN PSZ-AC-4 UNITARY HP FAN - COOLING COIL NODE,SETPOINTMANAGER:MIXEDAIR,NODE 34 OS DEFAULT SPM,Sensor,1
 Non-Parent Node Connection,NODE 34,SETPOINTMANAGER:MIXEDAIR,NODE 34 OS DEFAULT SPM,Setpoint,1
 Non-Parent Node Connection,NODE 38,SETPOINTMANAGER:MIXEDAIR,NODE 44 OS DEFAULT SPM,Sensor,1
 Non-Parent Node Connection,NODE 44,SETPOINTMANAGER:MIXEDAIR,NODE 44 OS DEFAULT SPM,Sensor,1
 Non-Parent Node Connection,PERIMETER_ZN_4 ZN PSZ-AC-5 UNITARY HP FAN - COOLING COIL NODE,SETPOINTMANAGER:MIXEDAIR,NODE 44 OS DEFAULT SPM,Sensor,1
 Non-Parent Node Connection,NODE 44,SETPOINTMANAGER:MIXEDAIR,NODE 44 OS DEFAULT SPM,Setpoint,1
 Non-Parent Node Connection,NODE 65,PIPE:ADIABATIC,PIPE ADIABATIC 1,Inlet,1
 Non-Parent Node Connection,NODE 66,PIPE:ADIABATIC,PIPE ADIABATIC 1,Outlet,1
 Non-Parent Node Connection,NODE 68,PIPE:ADIABATIC,PIPE ADIABATIC 3,Inlet,1
 Non-Parent Node Connection,NODE 58,PIPE:ADIABATIC,PIPE ADIABATIC 3,Outlet,1
 Non-Parent Node Connection,NODE 60,PIPE:ADIABATIC,MAIN SERVICE WATER LOOP DEMAND INLET PIPE,Inlet,1
 Non-Parent Node Connection,MAIN SERVICE WATER LOOP DEMAND INLET PIPE NODE,PIPE:ADIABATIC,MAIN SERVICE WATER LOOP DEMAND INLET PIPE,Outlet,1
 Non-Parent Node Connection,NODE 62,PIPE:ADIABATIC,PIPE ADIABATIC 2,Inlet,1
 Non-Parent Node Connection,NODE 67,PIPE:ADIABATIC,PIPE ADIABATIC 2,Outlet,1
 Non-Parent Node Connection,MAIN SERVICE WATER LOOP DEMAND BYPASS PIPE INLET NODE,PIPE:ADIABATIC,MAIN SERVICE WATER LOOP DEMAND BYPASS PIPE,Inlet,1
 Non-Parent Node Connection,MAIN SERVICE WATER LOOP DEMAND BYPASS PIPE OUTLET NODE,PIPE:ADIABATIC,MAIN SERVICE WATER LOOP DEMAND BYPASS PIPE,Outlet,1
 Non-Parent Node Connection,NODE 69,PIPE:ADIABATIC,PIPE ADIABATIC 4,Inlet,1
 Non-Parent Node Connection,NODE 61,PIPE:ADIABATIC,PIPE ADIABATIC 4,Outlet,1
 Non-Parent Node Connection,NODE 70,WATERUSE:CONNECTIONS,MAIN WUC 0.06GPM AT 140F,Inlet,1
 Non-Parent Node Connection,NODE 71,WATERUSE:CONNECTIONS,MAIN WUC 0.06GPM AT 140F,Outlet,1
 Non-Parent Node Connection,MAIN SERVICE WATER LOOP DEMAND INLET PIPE NODE,CONNECTOR:SPLITTER,MAIN SERVICE WATER LOOP DEMAND SPLITTER,Inlet,1
 Non-Parent Node Connection,NODE 62,CONNECTOR:SPLITTER,MAIN SERVICE WATER LOOP DEMAND SPLITTER,Outlet,1
 Non-Parent Node Connection,NODE 70,CONNECTOR:SPLITTER,MAIN SERVICE WATER LOOP DEMAND SPLITTER,Outlet,1
 Non-Parent Node Connection,MAIN SERVICE WATER LOOP DEMAND BYPASS PIPE INLET NODE,CONNECTOR:SPLITTER,MAIN SERVICE WATER LOOP DEMAND SPLITTER,Outlet,1
 Non-Parent Node Connection,NODE 69,CONNECTOR:MIXER,MAIN SERVICE WATER LOOP DEMAND MIXER,Outlet,1
 Non-Parent Node Connection,NODE 67,CONNECTOR:MIXER,MAIN SERVICE WATER LOOP DEMAND MIXER,Inlet,1
 Non-Parent Node Connection,NODE 71,CONNECTOR:MIXER,MAIN SERVICE WATER LOOP DEMAND MIXER,Inlet,1
 Non-Parent Node Connection,MAIN SERVICE WATER LOOP DEMAND BYPASS PIPE OUTLET NODE,CONNECTOR:MIXER,MAIN SERVICE WATER LOOP DEMAND MIXER,Inlet,1
 Non-Parent Node Connection,NODE 63,CONNECTOR:SPLITTER,MAIN SERVICE WATER LOOP SUPPLY SPLITTER,Inlet,1
 Non-Parent Node Connection,NODE 59,CONNECTOR:SPLITTER,MAIN SERVICE WATER LOOP SUPPLY SPLITTER,Outlet,1
 Non-Parent Node Connection,NODE 65,CONNECTOR:SPLITTER,MAIN SERVICE WATER LOOP SUPPLY SPLITTER,Outlet,1
 Non-Parent Node Connection,NODE 68,CONNECTOR:MIXER,MAIN SERVICE WATER LOOP SUPPLY MIXER,Outlet,1
 Non-Parent Node Connection,NODE 64,CONNECTOR:MIXER,MAIN SERVICE WATER LOOP SUPPLY MIXER,Inlet,1
 Non-Parent Node Connection,NODE 66,CONNECTOR:MIXER,MAIN SERVICE WATER LOOP SUPPLY MIXER,Inlet,1
 Non-Parent Node Connection,NODE 49,AIRLOOPHVAC:ZONESPLITTER,AIR LOOP HVAC ZONE SPLITTER 5,Inlet,1
 Non-Parent Node Connection,NODE 56,AIRLOOPHVAC:ZONESPLITTER,AIR LOOP HVAC ZONE SPLITTER 5,Outlet,1
 Non-Parent Node Connection,NODE 9,AIRLOOPHVAC:ZONESPLITTER,AIR LOOP HVAC ZONE SPLITTER 1,Inlet,1
 Non-Parent Node Connection,NODE 16,AIRLOOPHVAC:ZONESPLITTER,AIR LOOP HVAC ZONE SPLITTER 1,Outlet,1
 Non-Parent Node Connection,NODE 19,AIRLOOPHVAC:ZONESPLITTER,AIR LOOP HVAC ZONE SPLITTER 2,Inlet,1
 Non-Parent Node Connection,NODE 26,AIRLOOPHVAC:ZONESPLITTER,AIR LOOP HVAC ZONE SPLITTER 2,Outlet,1
 Non-Parent Node Connection,NODE 29,AIRLOOPHVAC:ZONESPLITTER,AIR LOOP HVAC ZONE SPLITTER 3,Inlet,1
 Non-Parent Node Connection,NODE 36,AIRLOOPHVAC:ZONESPLITTER,AIR LOOP HVAC ZONE SPLITTER 3,Outlet,1
 Non-Parent Node Connection,NODE 39,AIRLOOPHVAC:ZONESPLITTER,AIR LOOP HVAC ZONE SPLITTER 4,Inlet,1
 Non-Parent Node Connection,NODE 46,AIRLOOPHVAC:ZONESPLITTER,AIR LOOP HVAC ZONE SPLITTER 4,Outlet,1
 Non-Parent Node Connection,NODE 56,AIRTERMINAL:SINGLEDUCT:CONSTANTVOLUME:NOREHEAT,CORE_ZN ZN PSZ-AC-1 DIFFUSER,Inlet,1
 Non-Parent Node Connection,NODE 51,AIRTERMINAL:SINGLEDUCT:CONSTANTVOLUME:NOREHEAT,CORE_ZN ZN PSZ-AC-1 DIFFUSER,Outlet,1
 Non-Parent Node Connection,NODE 16,AIRTERMINAL:SINGLEDUCT:CONSTANTVOLUME:NOREHEAT,PERIMETER_ZN_1 ZN PSZ-AC-2 DIFFUSER,Inlet,1
 Non-Parent Node Connection,NODE 11,AIRTERMINAL:SINGLEDUCT:CONSTANTVOLUME:NOREHEAT,PERIMETER_ZN_1 ZN PSZ-AC-2 DIFFUSER,Outlet,1
 Non-Parent Node Connection,NODE 26,AIRTERMINAL:SINGLEDUCT:CONSTANTVOLUME:NOREHEAT,PERIMETER_ZN_2 ZN PSZ-AC-3 DIFFUSER,Inlet,1
 Non-Parent Node Connection,NODE 21,AIRTERMINAL:SINGLEDUCT:CONSTANTVOLUME:NOREHEAT,PERIMETER_ZN_2 ZN PSZ-AC-3 DIFFUSER,Outlet,1
 Non-Parent Node Connection,NODE 36,AIRTERMINAL:SINGLEDUCT:CONSTANTVOLUME:NOREHEAT,PERIMETER_ZN_3 ZN PSZ-AC-4 DIFFUSER,Inlet,1
 Non-Parent Node Connection,NODE 31,AIRTERMINAL:SINGLEDUCT:CONSTANTVOLUME:NOREHEAT,PERIMETER_ZN_3 ZN PSZ-AC-4 DIFFUSER,Outlet,1
 Non-Parent Node Connection,NODE 46,AIRTERMINAL:SINGLEDUCT:CONSTANTVOLUME:NOREHEAT,PERIMETER_ZN_4 ZN PSZ-AC-5 DIFFUSER,Inlet,1
 Non-Parent Node Connection,NODE 41,AIRTERMINAL:SINGLEDUCT:CONSTANTVOLUME:NOREHEAT,PERIMETER_ZN_4 ZN PSZ-AC-5 DIFFUSER,Outlet,1
 Non-Parent Node Connection,NODE 50,AIRLOOPHVAC:ZONEMIXER,AIR LOOP HVAC ZONE MIXER 5,Outlet,1
 Non-Parent Node Connection,NODE 55,AIRLOOPHVAC:ZONEMIXER,AIR LOOP HVAC ZONE MIXER 5,Inlet,1
 Non-Parent Node Connection,NODE 10,AIRLOOPHVAC:ZONEMIXER,AIR LOOP HVAC ZONE MIXER 1,Outlet,1
 Non-Parent Node Connection,NODE 15,AIRLOOPHVAC:ZONEMIXER,AIR LOOP HVAC ZONE MIXER 1,Inlet,1
 Non-Parent Node Connection,NODE 20,AIRLOOPHVAC:ZONEMIXER,AIR LOOP HVAC ZONE MIXER 2,Outlet,1
 Non-Parent Node Connection,NODE 25,AIRLOOPHVAC:ZONEMIXER,AIR LOOP HVAC ZONE MIXER 2,Inlet,1
 Non-Parent Node Connection,NODE 30,AIRLOOPHVAC:ZONEMIXER,AIR LOOP HVAC ZONE MIXER 3,Outlet,1
 Non-Parent Node Connection,NODE 35,AIRLOOPHVAC:ZONEMIXER,AIR LOOP HVAC ZONE MIXER 3,Inlet,1
 Non-Parent Node Connection,NODE 40,AIRLOOPHVAC:ZONEMIXER,AIR LOOP HVAC ZONE MIXER 4,Outlet,1
 Non-Parent Node Connection,NODE 45,AIRLOOPHVAC:ZONEMIXER,AIR LOOP HVAC ZONE MIXER 4,Inlet,1
 Non-Parent Node Connection,NODE 54,OUTDOORAIR:MIXER,CORE_ZN ZN PSZ-AC-1 OA SYSTEM OUTDOOR AIR MIXER,Outlet,1
 Non-Parent Node Connection,NODE 52,OUTDOORAIR:MIXER,CORE_ZN ZN PSZ-AC-1 OA SYSTEM OUTDOOR AIR MIXER,Inlet,1
 Non-Parent Node Connection,NODE 53,OUTDOORAIR:MIXER,CORE_ZN ZN PSZ-AC-1 OA SYSTEM OUTDOOR AIR MIXER,ReliefAir,1
 Non-Parent Node Connection,NODE 47,OUTDOORAIR:MIXER,CORE_ZN ZN PSZ-AC-1 OA SYSTEM OUTDOOR AIR MIXER,Inlet,1
 Non-Parent Node Connection,NODE 14,OUTDOORAIR:MIXER,PERIMETER_ZN_1 ZN PSZ-AC-2 OA SYSTEM OUTDOOR AIR MIXER,Outlet,1
 Non-Parent Node Connection,NODE 12,OUTDOORAIR:MIXER,PERIMETER_ZN_1 ZN PSZ-AC-2 OA SYSTEM OUTDOOR AIR MIXER,Inlet,1
 Non-Parent Node Connection,NODE 13,OUTDOORAIR:MIXER,PERIMETER_ZN_1 ZN PSZ-AC-2 OA SYSTEM OUTDOOR AIR MIXER,ReliefAir,1
 Non-Parent Node Connection,NODE 7,OUTDOORAIR:MIXER,PERIMETER_ZN_1 ZN PSZ-AC-2 OA SYSTEM OUTDOOR AIR MIXER,Inlet,1
 Non-Parent Node Connection,NODE 24,OUTDOORAIR:MIXER,PERIMETER_ZN_2 ZN PSZ-AC-3 OA SYSTEM OUTDOOR AIR MIXER,Outlet,1
 Non-Parent Node Connection,NODE 22,OUTDOORAIR:MIXER,PERIMETER_ZN_2 ZN PSZ-AC-3 OA SYSTEM OUTDOOR AIR MIXER,Inlet,1
 Non-Parent Node Connection,NODE 23,OUTDOORAIR:MIXER,PERIMETER_ZN_2 ZN PSZ-AC-3 OA SYSTEM OUTDOOR AIR MIXER,ReliefAir,1
 Non-Parent Node Connection,NODE 17,OUTDOORAIR:MIXER,PERIMETER_ZN_2 ZN PSZ-AC-3 OA SYSTEM OUTDOOR AIR MIXER,Inlet,1
 Non-Parent Node Connection,NODE 34,OUTDOORAIR:MIXER,PERIMETER_ZN_3 ZN PSZ-AC-4 OA SYSTEM OUTDOOR AIR MIXER,Outlet,1
 Non-Parent Node Connection,NODE 32,OUTDOORAIR:MIXER,PERIMETER_ZN_3 ZN PSZ-AC-4 OA SYSTEM OUTDOOR AIR MIXER,Inlet,1
 Non-Parent Node Connection,NODE 33,OUTDOORAIR:MIXER,PERIMETER_ZN_3 ZN PSZ-AC-4 OA SYSTEM OUTDOOR AIR MIXER,ReliefAir,1
 Non-Parent Node Connection,NODE 27,OUTDOORAIR:MIXER,PERIMETER_ZN_3 ZN PSZ-AC-4 OA SYSTEM OUTDOOR AIR MIXER,Inlet,1
 Non-Parent Node Connection,NODE 44,OUTDOORAIR:MIXER,PERIMETER_ZN_4 ZN PSZ-AC-5 OA SYSTEM OUTDOOR AIR MIXER,Outlet,1
 Non-Parent Node Connection,NODE 42,OUTDOORAIR:MIXER,PERIMETER_ZN_4 ZN PSZ-AC-5 OA SYSTEM OUTDOOR AIR MIXER,Inlet,1
 Non-Parent Node Connection,NODE 43,OUTDOORAIR:MIXER,PERIMETER_ZN_4 ZN PSZ-AC-5 OA SYSTEM OUTDOOR AIR MIXER,ReliefAir,1
 Non-Parent Node Connection,NODE 37,OUTDOORAIR:MIXER,PERIMETER_ZN_4 ZN PSZ-AC-5 OA SYSTEM OUTDOOR AIR MIXER,Inlet,1
 Non-Parent Node Connection,CORE_ZN ZN PSZ-AC-1 UNITARY HP FAN - COOLING COIL NODE,COIL:COOLING:DX:SINGLESPEED,CORE_ZN ZN PSZ-AC-1 1SPD DX HP CLG COIL,Inlet,1
 Non-Parent Node Connection,CORE_ZN ZN PSZ-AC-1 UNITARY HP COOLING COIL - HEATING COIL NODE,COIL:COOLING:DX:SINGLESPEED,CORE_ZN ZN PSZ-AC-1 1SPD DX HP CLG COIL,Outlet,1
 Non-Parent Node Connection,PERIMETER_ZN_1 ZN PSZ-AC-2 UNITARY HP FAN - COOLING COIL NODE,COIL:COOLING:DX:SINGLESPEED,PERIMETER_ZN_1 ZN PSZ-AC-2 1SPD DX HP CLG COIL,Inlet,1
 Non-Parent Node Connection,PERIMETER_ZN_1 ZN PSZ-AC-2 UNITARY HP COOLING COIL - HEATING COIL NODE,COIL:COOLING:DX:SINGLESPEED,PERIMETER_ZN_1 ZN PSZ-AC-2 1SPD DX HP CLG COIL,Outlet,1
 Non-Parent Node Connection,PERIMETER_ZN_2 ZN PSZ-AC-3 UNITARY HP FAN - COOLING COIL NODE,COIL:COOLING:DX:SINGLESPEED,PERIMETER_ZN_2 ZN PSZ-AC-3 1SPD DX HP CLG COIL,Inlet,1
 Non-Parent Node Connection,PERIMETER_ZN_2 ZN PSZ-AC-3 UNITARY HP COOLING COIL - HEATING COIL NODE,COIL:COOLING:DX:SINGLESPEED,PERIMETER_ZN_2 ZN PSZ-AC-3 1SPD DX HP CLG COIL,Outlet,1
 Non-Parent Node Connection,PERIMETER_ZN_3 ZN PSZ-AC-4 UNITARY HP FAN - COOLING COIL NODE,COIL:COOLING:DX:SINGLESPEED,PERIMETER_ZN_3 ZN PSZ-AC-4 1SPD DX HP CLG COIL,Inlet,1
 Non-Parent Node Connection,PERIMETER_ZN_3 ZN PSZ-AC-4 UNITARY HP COOLING COIL - HEATING COIL NODE,COIL:COOLING:DX:SINGLESPEED,PERIMETER_ZN_3 ZN PSZ-AC-4 1SPD DX HP CLG COIL,Outlet,1
 Non-Parent Node Connection,PERIMETER_ZN_4 ZN PSZ-AC-5 UNITARY HP FAN - COOLING COIL NODE,COIL:COOLING:DX:SINGLESPEED,PERIMETER_ZN_4 ZN PSZ-AC-5 1SPD DX HP CLG COIL,Inlet,1
 Non-Parent Node Connection,PERIMETER_ZN_4 ZN PSZ-AC-5 UNITARY HP COOLING COIL - HEATING COIL NODE,COIL:COOLING:DX:SINGLESPEED,PERIMETER_ZN_4 ZN PSZ-AC-5 1SPD DX HP CLG COIL,Outlet,1
 Non-Parent Node Connection,CORE_ZN ZN PSZ-AC-1 UNITARY HP COOLING COIL - HEATING COIL NODE,COIL:HEATING:DX:SINGLESPEED,CORE_ZN ZN HP HTG COIL,Inlet,1
 Non-Parent Node Connection,CORE_ZN ZN PSZ-AC-1 UNITARY HP HEATING COIL - SUPPLEMENTAL COIL NODE,COIL:HEATING:DX:SINGLESPEED,CORE_ZN ZN HP HTG COIL,Outlet,1
 Non-Parent Node Connection,PERIMETER_ZN_1 ZN PSZ-AC-2 UNITARY HP COOLING COIL - HEATING COIL NODE,COIL:HEATING:DX:SINGLESPEED,PERIMETER_ZN_1 ZN HP HTG COIL,Inlet,1
 Non-Parent Node Connection,PERIMETER_ZN_1 ZN PSZ-AC-2 UNITARY HP HEATING COIL - SUPPLEMENTAL COIL NODE,COIL:HEATING:DX:SINGLESPEED,PERIMETER_ZN_1 ZN HP HTG COIL,Outlet,1
 Non-Parent Node Connection,PERIMETER_ZN_2 ZN PSZ-AC-3 UNITARY HP COOLING COIL - HEATING COIL NODE,COIL:HEATING:DX:SINGLESPEED,PERIMETER_ZN_2 ZN HP HTG COIL,Inlet,1
 Non-Parent Node Connection,PERIMETER_ZN_2 ZN PSZ-AC-3 UNITARY HP HEATING COIL - SUPPLEMENTAL COIL NODE,COIL:HEATING:DX:SINGLESPEED,PERIMETER_ZN_2 ZN HP HTG COIL,Outlet,1
 Non-Parent Node Connection,PERIMETER_ZN_3 ZN PSZ-AC-4 UNITARY HP COOLING COIL - HEATING COIL NODE,COIL:HEATING:DX:SINGLESPEED,PERIMETER_ZN_3 ZN HP HTG COIL,Inlet,1
 Non-Parent Node Connection,PERIMETER_ZN_3 ZN PSZ-AC-4 UNITARY HP HEATING COIL - SUPPLEMENTAL COIL NODE,COIL:HEATING:DX:SINGLESPEED,PERIMETER_ZN_3 ZN HP HTG COIL,Outlet,1
 Non-Parent Node Connection,PERIMETER_ZN_4 ZN PSZ-AC-5 UNITARY HP COOLING COIL - HEATING COIL NODE,COIL:HEATING:DX:SINGLESPEED,PERIMETER_ZN_4 ZN HP HTG COIL,Inlet,1
 Non-Parent Node Connection,PERIMETER_ZN_4 ZN PSZ-AC-5 UNITARY HP HEATING COIL - SUPPLEMENTAL COIL NODE,COIL:HEATING:DX:SINGLESPEED,PERIMETER_ZN_4 ZN HP HTG COIL,Outlet,1
 Non-Parent Node Connection,NODE 54,FAN:ONOFF,CORE_ZN ZN PSZ-AC-1 FAN,Inlet,1
 Non-Parent Node Connection,CORE_ZN ZN PSZ-AC-1 UNITARY HP FAN - COOLING COIL NODE,FAN:ONOFF,CORE_ZN ZN PSZ-AC-1 FAN,Outlet,1
 Non-Parent Node Connection,NODE 14,FAN:ONOFF,PERIMETER_ZN_1 ZN PSZ-AC-2 FAN,Inlet,1
 Non-Parent Node Connection,PERIMETER_ZN_1 ZN PSZ-AC-2 UNITARY HP FAN - COOLING COIL NODE,FAN:ONOFF,PERIMETER_ZN_1 ZN PSZ-AC-2 FAN,Outlet,1
 Non-Parent Node Connection,NODE 24,FAN:ONOFF,PERIMETER_ZN_2 ZN PSZ-AC-3 FAN,Inlet,1
 Non-Parent Node Connection,PERIMETER_ZN_2 ZN PSZ-AC-3 UNITARY HP FAN - COOLING COIL NODE,FAN:ONOFF,PERIMETER_ZN_2 ZN PSZ-AC-3 FAN,Outlet,1
 Non-Parent Node Connection,NODE 34,FAN:ONOFF,PERIMETER_ZN_3 ZN PSZ-AC-4 FAN,Inlet,1
 Non-Parent Node Connection,PERIMETER_ZN_3 ZN PSZ-AC-4 UNITARY HP FAN - COOLING COIL NODE,FAN:ONOFF,PERIMETER_ZN_3 ZN PSZ-AC-4 FAN,Outlet,1
 Non-Parent Node Connection,NODE 44,FAN:ONOFF,PERIMETER_ZN_4 ZN PSZ-AC-5 FAN,Inlet,1
 Non-Parent Node Connection,PERIMETER_ZN_4 ZN PSZ-AC-5 UNITARY HP FAN - COOLING COIL NODE,FAN:ONOFF,PERIMETER_ZN_4 ZN PSZ-AC-5 FAN,Outlet,1
 Non-Parent Node Connection,CORE_ZN ZN PSZ-AC-1 UNITARY HP HEATING COIL - SUPPLEMENTAL COIL NODE,COIL:HEATING:FUEL,CORE_ZN ZN PSZ-AC-1 GAS BACKUP HTG COIL,Inlet,1
 Non-Parent Node Connection,NODE 48,COIL:HEATING:FUEL,CORE_ZN ZN PSZ-AC-1 GAS BACKUP HTG COIL,Outlet,1
 Non-Parent Node Connection,PERIMETER_ZN_1 ZN PSZ-AC-2 UNITARY HP HEATING COIL - SUPPLEMENTAL COIL NODE,COIL:HEATING:FUEL,PERIMETER_ZN_1 ZN PSZ-AC-2 GAS BACKUP HTG COIL,Inlet,1
 Non-Parent Node Connection,NODE 8,COIL:HEATING:FUEL,PERIMETER_ZN_1 ZN PSZ-AC-2 GAS BACKUP HTG COIL,Outlet,1
 Non-Parent Node Connection,PERIMETER_ZN_2 ZN PSZ-AC-3 UNITARY HP HEATING COIL - SUPPLEMENTAL COIL NODE,COIL:HEATING:FUEL,PERIMETER_ZN_2 ZN PSZ-AC-3 GAS BACKUP HTG COIL,Inlet,1
 Non-Parent Node Connection,NODE 18,COIL:HEATING:FUEL,PERIMETER_ZN_2 ZN PSZ-AC-3 GAS BACKUP HTG COIL,Outlet,1
 Non-Parent Node Connection,PERIMETER_ZN_3 ZN PSZ-AC-4 UNITARY HP HEATING COIL - SUPPLEMENTAL COIL NODE,COIL:HEATING:FUEL,PERIMETER_ZN_3 ZN PSZ-AC-4 GAS BACKUP HTG COIL,Inlet,1
 Non-Parent Node Connection,NODE 28,COIL:HEATING:FUEL,PERIMETER_ZN_3 ZN PSZ-AC-4 GAS BACKUP HTG COIL,Outlet,1
 Non-Parent Node Connection,PERIMETER_ZN_4 ZN PSZ-AC-5 UNITARY HP HEATING COIL - SUPPLEMENTAL COIL NODE,COIL:HEATING:FUEL,PERIMETER_ZN_4 ZN PSZ-AC-5 GAS BACKUP HTG COIL,Inlet,1
 Non-Parent Node Connection,NODE 38,COIL:HEATING:FUEL,PERIMETER_ZN_4 ZN PSZ-AC-5 GAS BACKUP HTG COIL,Outlet,1
 Non-Parent Node Connection,NODE 54,CONTROLLER:OUTDOORAIR,CORE_ZN ZN PSZ-AC-1 OA SYSTEM CONTROLLER,Sensor,1
 Non-Parent Node Connection,NODE 52,CONTROLLER:OUTDOORAIR,CORE_ZN ZN PSZ-AC-1 OA SYSTEM CONTROLLER,Actuator,1
 Non-Parent Node Connection,NODE 53,CONTROLLER:OUTDOORAIR,CORE_ZN ZN PSZ-AC-1 OA SYSTEM CONTROLLER,Actuator,1
 Non-Parent Node Connection,NODE 47,CONTROLLER:OUTDOORAIR,CORE_ZN ZN PSZ-AC-1 OA SYSTEM CONTROLLER,Sensor,1
 Non-Parent Node Connection,NODE 14,CONTROLLER:OUTDOORAIR,PERIMETER_ZN_1 ZN PSZ-AC-2 OA SYSTEM CONTROLLER,Sensor,1
 Non-Parent Node Connection,NODE 12,CONTROLLER:OUTDOORAIR,PERIMETER_ZN_1 ZN PSZ-AC-2 OA SYSTEM CONTROLLER,Actuator,1
 Non-Parent Node Connection,NODE 13,CONTROLLER:OUTDOORAIR,PERIMETER_ZN_1 ZN PSZ-AC-2 OA SYSTEM CONTROLLER,Actuator,1
 Non-Parent Node Connection,NODE 7,CONTROLLER:OUTDOORAIR,PERIMETER_ZN_1 ZN PSZ-AC-2 OA SYSTEM CONTROLLER,Sensor,1
 Non-Parent Node Connection,NODE 24,CONTROLLER:OUTDOORAIR,PERIMETER_ZN_2 ZN PSZ-AC-3 OA SYSTEM CONTROLLER,Sensor,1
 Non-Parent Node Connection,NODE 22,CONTROLLER:OUTDOORAIR,PERIMETER_ZN_2 ZN PSZ-AC-3 OA SYSTEM CONTROLLER,Actuator,1
 Non-Parent Node Connection,NODE 23,CONTROLLER:OUTDOORAIR,PERIMETER_ZN_2 ZN PSZ-AC-3 OA SYSTEM CONTROLLER,Actuator,1
 Non-Parent Node Connection,NODE 17,CONTROLLER:OUTDOORAIR,PERIMETER_ZN_2 ZN PSZ-AC-3 OA SYSTEM CONTROLLER,Sensor,1
 Non-Parent Node Connection,NODE 34,CONTROLLER:OUTDOORAIR,PERIMETER_ZN_3 ZN PSZ-AC-4 OA SYSTEM CONTROLLER,Sensor,1
 Non-Parent Node Connection,NODE 32,CONTROLLER:OUTDOORAIR,PERIMETER_ZN_3 ZN PSZ-AC-4 OA SYSTEM CONTROLLER,Actuator,1
 Non-Parent Node Connection,NODE 33,CONTROLLER:OUTDOORAIR,PERIMETER_ZN_3 ZN PSZ-AC-4 OA SYSTEM CONTROLLER,Actuator,1
 Non-Parent Node Connection,NODE 27,CONTROLLER:OUTDOORAIR,PERIMETER_ZN_3 ZN PSZ-AC-4 OA SYSTEM CONTROLLER,Sensor,1
 Non-Parent Node Connection,NODE 44,CONTROLLER:OUTDOORAIR,PERIMETER_ZN_4 ZN PSZ-AC-5 OA SYSTEM CONTROLLER,Sensor,1
 Non-Parent Node Connection,NODE 42,CONTROLLER:OUTDOORAIR,PERIMETER_ZN_4 ZN PSZ-AC-5 OA SYSTEM CONTROLLER,Actuator,1
 Non-Parent Node Connection,NODE 43,CONTROLLER:OUTDOORAIR,PERIMETER_ZN_4 ZN PSZ-AC-5 OA SYSTEM CONTROLLER,Actuator,1
 Non-Parent Node Connection,NODE 37,CONTROLLER:OUTDOORAIR,PERIMETER_ZN_4 ZN PSZ-AC-5 OA SYSTEM CONTROLLER,Sensor,1
 Non-Parent Node Connection,NODE 57,PUMP:VARIABLESPEED,MAIN SERVICE WATER LOOP WATER MAINS PRESSURE DRIVEN,Inlet,1
 Non-Parent Node Connection,NODE 63,PUMP:VARIABLESPEED,MAIN SERVICE WATER LOOP WATER MAINS PRESSURE DRIVEN,Outlet,1
